<?xml version="1.0" encoding="UTF-8"?>

<!-- generated on 2026-05-23 19:18:32 by Eclipse SUMO jtrrouter Version 1.23.1
<jtrrouterConfiguration xmlns:xsi="http://www.w3.org/2001/XMLSchema-instance" xsi:noNamespaceSchemaLocation="http://sumo.dlr.de/xsd/jtrrouterConfiguration.xsd">

    <input>
        <net-file value="demo_15.net.xml"/>
        <route-files value="demo_15.flow.xml"/>
        <turn-ratio-files value="demo_15.turn.xml"/>
    </input>

    <output>
        <output-file value="demo_15.rou.xml"/>
    </output>

    <time>
        <begin value="0"/>
        <end value="3600"/>
    </time>

</jtrrouterConfiguration>
-->

<routes xmlns:xsi="http://www.w3.org/2001/XMLSchema-instance" xsi:noNamespaceSchemaLocation="http://sumo.dlr.de/xsd/routes_file.xsd">
    <vType id="car" maxSpeed="37.00" vClass="passenger"/>
    <vehicle id="EW_car.0" type="car" depart="0.00">
        <route edges="-E1 -E1.42 E3"/>
    </vehicle>
    <vehicle id="NS_car.0" type="car" depart="0.00">
        <route edges="-E3 -E0"/>
    </vehicle>
    <vehicle id="SN_car.0" type="car" depart="0.00">
        <route edges="-E2 -E2.41 E1"/>
    </vehicle>
    <vehicle id="WE_car.0" type="car" depart="0.00">
        <route edges="E0 E0.40 E3"/>
    </vehicle>
    <vehicle id="SN_car.1" type="car" depart="4.31">
        <route edges="-E2 -E2.41 E1"/>
    </vehicle>
    <vehicle id="NS_car.1" type="car" depart="4.55">
        <route edges="-E3 E2"/>
    </vehicle>
    <vehicle id="EW_car.1" type="car" depart="6.82">
        <route edges="-E1 -E1.42 E2"/>
    </vehicle>
    <vehicle id="WE_car.1" type="car" depart="7.64">
        <route edges="E0 E0.40 E2"/>
    </vehicle>
    <vehicle id="SN_car.2" type="car" depart="8.61">
        <route edges="-E2 -E2.41 -E0"/>
    </vehicle>
    <vehicle id="NS_car.2" type="car" depart="9.09">
        <route edges="-E3 -E0"/>
    </vehicle>
    <vehicle id="SN_car.3" type="car" depart="12.92">
        <route edges="-E2 -E2.41 E1"/>
    </vehicle>
    <vehicle id="NS_car.3" type="car" depart="13.64">
        <route edges="-E3 E2"/>
    </vehicle>
    <vehicle id="EW_car.2" type="car" depart="13.64">
        <route edges="-E1 -E1.42 E2"/>
    </vehicle>
    <vehicle id="WE_car.2" type="car" depart="15.29">
        <route edges="E0 E0.40 E2"/>
    </vehicle>
    <vehicle id="SN_car.4" type="car" depart="17.22">
        <route edges="-E2 -E2.41 E3"/>
    </vehicle>
    <vehicle id="NS_car.4" type="car" depart="18.18">
        <route edges="-E3 E2"/>
    </vehicle>
    <vehicle id="EW_car.3" type="car" depart="20.45">
        <route edges="-E1 -E1.42 E2"/>
    </vehicle>
    <vehicle id="SN_car.5" type="car" depart="21.53">
        <route edges="-E2 -E2.41 -E0"/>
    </vehicle>
    <vehicle id="NS_car.5" type="car" depart="22.73">
        <route edges="-E3 E1"/>
    </vehicle>
    <vehicle id="WE_car.3" type="car" depart="22.93">
        <route edges="E0 E0.40 E1"/>
    </vehicle>
    <vehicle id="SN_car.6" type="car" depart="25.84">
        <route edges="-E2 -E2.41 -E0"/>
    </vehicle>
    <vehicle id="NS_car.6" type="car" depart="27.27">
        <route edges="-E3 E2"/>
    </vehicle>
    <vehicle id="EW_car.4" type="car" depart="27.27">
        <route edges="-E1 -E1.42 -E0"/>
    </vehicle>
    <vehicle id="SN_car.7" type="car" depart="30.14">
        <route edges="-E2 -E2.41 E1"/>
    </vehicle>
    <vehicle id="WE_car.4" type="car" depart="30.57">
        <route edges="E0 E0.40 E1"/>
    </vehicle>
    <vehicle id="NS_car.7" type="car" depart="31.82">
        <route edges="-E3 -E0"/>
    </vehicle>
    <vehicle id="EW_car.5" type="car" depart="34.09">
        <route edges="-E1 -E1.42 E2"/>
    </vehicle>
    <vehicle id="SN_car.8" type="car" depart="34.45">
        <route edges="-E2 -E2.41 E3"/>
    </vehicle>
    <vehicle id="NS_car.8" type="car" depart="36.36">
        <route edges="-E3 -E0"/>
    </vehicle>
    <vehicle id="WE_car.5" type="car" depart="38.22">
        <route edges="E0 E0.40 E3"/>
    </vehicle>
    <vehicle id="SN_car.9" type="car" depart="38.75">
        <route edges="-E2 -E2.41 E3"/>
    </vehicle>
    <vehicle id="NS_car.9" type="car" depart="40.91">
        <route edges="-E3 E2"/>
    </vehicle>
    <vehicle id="EW_car.6" type="car" depart="40.91">
        <route edges="-E1 -E1.42 -E0"/>
    </vehicle>
    <vehicle id="SN_car.10" type="car" depart="43.06">
        <route edges="-E2 -E2.41 E1"/>
    </vehicle>
    <vehicle id="NS_car.10" type="car" depart="45.45">
        <route edges="-E3 -E0"/>
    </vehicle>
    <vehicle id="WE_car.6" type="car" depart="45.86">
        <route edges="E0 E0.40 E1"/>
    </vehicle>
    <vehicle id="SN_car.11" type="car" depart="47.37">
        <route edges="-E2 -E2.41 -E0"/>
    </vehicle>
    <vehicle id="EW_car.7" type="car" depart="47.73">
        <route edges="-E1 -E1.42 -E0"/>
    </vehicle>
    <vehicle id="NS_car.11" type="car" depart="50.00">
        <route edges="-E3 E1"/>
    </vehicle>
    <vehicle id="SN_car.12" type="car" depart="51.67">
        <route edges="-E2 -E2.41 -E0"/>
    </vehicle>
    <vehicle id="WE_car.7" type="car" depart="53.50">
        <route edges="E0 E0.40 E3"/>
    </vehicle>
    <vehicle id="NS_car.12" type="car" depart="54.54">
        <route edges="-E3 E1"/>
    </vehicle>
    <vehicle id="EW_car.8" type="car" depart="54.54">
        <route edges="-E1 -E1.42 -E0"/>
    </vehicle>
    <vehicle id="SN_car.13" type="car" depart="55.98">
        <route edges="-E2 -E2.41 -E0"/>
    </vehicle>
    <vehicle id="NS_car.13" type="car" depart="59.09">
        <route edges="-E3 -E0"/>
    </vehicle>
    <vehicle id="SN_car.14" type="car" depart="60.28">
        <route edges="-E2 -E2.41 -E0"/>
    </vehicle>
    <vehicle id="WE_car.8" type="car" depart="61.14">
        <route edges="E0 E0.40 E1"/>
    </vehicle>
    <vehicle id="EW_car.9" type="car" depart="61.36">
        <route edges="-E1 -E1.42 -E0"/>
    </vehicle>
    <vehicle id="NS_car.14" type="car" depart="63.63">
        <route edges="-E3 E2"/>
    </vehicle>
    <vehicle id="SN_car.15" type="car" depart="64.59">
        <route edges="-E2 -E2.41 E3"/>
    </vehicle>
    <vehicle id="NS_car.15" type="car" depart="68.18">
        <route edges="-E3 E1"/>
    </vehicle>
    <vehicle id="EW_car.10" type="car" depart="68.18">
        <route edges="-E1 -E1.42 E3"/>
    </vehicle>
    <vehicle id="WE_car.9" type="car" depart="68.79">
        <route edges="E0 E0.40 E2"/>
    </vehicle>
    <vehicle id="SN_car.16" type="car" depart="68.90">
        <route edges="-E2 -E2.41 E3"/>
    </vehicle>
    <vehicle id="NS_car.16" type="car" depart="72.72">
        <route edges="-E3 -E0"/>
    </vehicle>
    <vehicle id="SN_car.17" type="car" depart="73.20">
        <route edges="-E2 -E2.41 -E0"/>
    </vehicle>
    <vehicle id="EW_car.11" type="car" depart="75.00">
        <route edges="-E1 -E1.42 E2"/>
    </vehicle>
    <vehicle id="WE_car.10" type="car" depart="76.43">
        <route edges="E0 E0.40 E2"/>
    </vehicle>
    <vehicle id="NS_car.17" type="car" depart="77.27">
        <route edges="-E3 E1"/>
    </vehicle>
    <vehicle id="SN_car.18" type="car" depart="77.51">
        <route edges="-E2 -E2.41 E1"/>
    </vehicle>
    <vehicle id="NS_car.18" type="car" depart="81.81">
        <route edges="-E3 E2"/>
    </vehicle>
    <vehicle id="SN_car.19" type="car" depart="81.81">
        <route edges="-E2 -E2.41 E3"/>
    </vehicle>
    <vehicle id="EW_car.12" type="car" depart="81.82">
        <route edges="-E1 -E1.42 E2"/>
    </vehicle>
    <vehicle id="WE_car.11" type="car" depart="84.07">
        <route edges="E0 E0.40 E2"/>
    </vehicle>
    <vehicle id="SN_car.20" type="car" depart="86.12">
        <route edges="-E2 -E2.41 E1"/>
    </vehicle>
    <vehicle id="NS_car.19" type="car" depart="86.36">
        <route edges="-E3 E2"/>
    </vehicle>
    <vehicle id="EW_car.13" type="car" depart="88.63">
        <route edges="-E1 -E1.42 -E0"/>
    </vehicle>
    <vehicle id="SN_car.21" type="car" depart="90.43">
        <route edges="-E2 -E2.41 -E0"/>
    </vehicle>
    <vehicle id="NS_car.20" type="car" depart="90.90">
        <route edges="-E3 E2"/>
    </vehicle>
    <vehicle id="WE_car.12" type="car" depart="91.72">
        <route edges="E0 E0.40 E3"/>
    </vehicle>
    <vehicle id="SN_car.22" type="car" depart="94.73">
        <route edges="-E2 -E2.41 E1"/>
    </vehicle>
    <vehicle id="NS_car.21" type="car" depart="95.45">
        <route edges="-E3 -E0"/>
    </vehicle>
    <vehicle id="EW_car.14" type="car" depart="95.45">
        <route edges="-E1 -E1.42 E2"/>
    </vehicle>
    <vehicle id="SN_car.23" type="car" depart="99.04">
        <route edges="-E2 -E2.41 E3"/>
    </vehicle>
    <vehicle id="WE_car.13" type="car" depart="99.36">
        <route edges="E0 E0.40 E3"/>
    </vehicle>
    <vehicle id="NS_car.22" type="car" depart="99.99">
        <route edges="-E3 E1"/>
    </vehicle>
    <vehicle id="EW_car.15" type="car" depart="102.27">
        <route edges="-E1 -E1.42 E2"/>
    </vehicle>
    <vehicle id="SN_car.24" type="car" depart="103.34">
        <route edges="-E2 -E2.41 -E0"/>
    </vehicle>
    <vehicle id="NS_car.23" type="car" depart="104.54">
        <route edges="-E3 E1"/>
    </vehicle>
    <vehicle id="WE_car.14" type="car" depart="107.00">
        <route edges="E0 E0.40 E2"/>
    </vehicle>
    <vehicle id="SN_car.25" type="car" depart="107.65">
        <route edges="-E2 -E2.41 -E0"/>
    </vehicle>
    <vehicle id="NS_car.24" type="car" depart="109.08">
        <route edges="-E3 E2"/>
    </vehicle>
    <vehicle id="EW_car.16" type="car" depart="109.09">
        <route edges="-E1 -E1.42 E3"/>
    </vehicle>
    <vehicle id="SN_car.26" type="car" depart="111.96">
        <route edges="-E2 -E2.41 E1"/>
    </vehicle>
    <vehicle id="NS_car.25" type="car" depart="113.63">
        <route edges="-E3 -E0"/>
    </vehicle>
    <vehicle id="WE_car.15" type="car" depart="114.65">
        <route edges="E0 E0.40 E3"/>
    </vehicle>
    <vehicle id="EW_car.17" type="car" depart="115.91">
        <route edges="-E1 -E1.42 E3"/>
    </vehicle>
    <vehicle id="SN_car.27" type="car" depart="116.26">
        <route edges="-E2 -E2.41 E1"/>
    </vehicle>
    <vehicle id="NS_car.26" type="car" depart="118.17">
        <route edges="-E3 E2"/>
    </vehicle>
    <vehicle id="SN_car.28" type="car" depart="120.57">
        <route edges="-E2 -E2.41 E1"/>
    </vehicle>
    <vehicle id="WE_car.16" type="car" depart="122.29">
        <route edges="E0 E0.40 E2"/>
    </vehicle>
    <vehicle id="NS_car.27" type="car" depart="122.72">
        <route edges="-E3 E2"/>
    </vehicle>
    <vehicle id="EW_car.18" type="car" depart="122.72">
        <route edges="-E1 -E1.42 E2"/>
    </vehicle>
    <vehicle id="SN_car.29" type="car" depart="124.87">
        <route edges="-E2 -E2.41 E1"/>
    </vehicle>
    <vehicle id="NS_car.28" type="car" depart="127.26">
        <route edges="-E3 -E0"/>
    </vehicle>
    <vehicle id="SN_car.30" type="car" depart="129.18">
        <route edges="-E2 -E2.41 E3"/>
    </vehicle>
    <vehicle id="EW_car.19" type="car" depart="129.54">
        <route edges="-E1 -E1.42 E3"/>
    </vehicle>
    <vehicle id="WE_car.17" type="car" depart="129.93">
        <route edges="E0 E0.40 E3"/>
    </vehicle>
    <vehicle id="NS_car.29" type="car" depart="131.81">
        <route edges="-E3 E2"/>
    </vehicle>
    <vehicle id="SN_car.31" type="car" depart="133.49">
        <route edges="-E2 -E2.41 E3"/>
    </vehicle>
    <vehicle id="NS_car.30" type="car" depart="136.35">
        <route edges="-E3 E1"/>
    </vehicle>
    <vehicle id="EW_car.20" type="car" depart="136.36">
        <route edges="-E1 -E1.42 -E0"/>
    </vehicle>
    <vehicle id="WE_car.18" type="car" depart="137.57">
        <route edges="E0 E0.40 E1"/>
    </vehicle>
    <vehicle id="SN_car.32" type="car" depart="137.79">
        <route edges="-E2 -E2.41 E1"/>
    </vehicle>
    <vehicle id="NS_car.31" type="car" depart="140.90">
        <route edges="-E3 E1"/>
    </vehicle>
    <vehicle id="SN_car.33" type="car" depart="142.10">
        <route edges="-E2 -E2.41 -E0"/>
    </vehicle>
    <vehicle id="EW_car.21" type="car" depart="143.18">
        <route edges="-E1 -E1.42 -E0"/>
    </vehicle>
    <vehicle id="WE_car.19" type="car" depart="145.22">
        <route edges="E0 E0.40 E1"/>
    </vehicle>
    <vehicle id="NS_car.32" type="car" depart="145.44">
        <route edges="-E3 -E0"/>
    </vehicle>
    <vehicle id="SN_car.34" type="car" depart="146.40">
        <route edges="-E2 -E2.41 -E0"/>
    </vehicle>
    <vehicle id="NS_car.33" type="car" depart="149.99">
        <route edges="-E3 -E0"/>
    </vehicle>
    <vehicle id="EW_car.22" type="car" depart="150.00">
        <route edges="-E1 -E1.42 -E0"/>
    </vehicle>
    <vehicle id="SN_car.35" type="car" depart="150.71">
        <route edges="-E2 -E2.41 E3"/>
    </vehicle>
    <vehicle id="WE_car.20" type="car" depart="152.86">
        <route edges="E0 E0.40 E1"/>
    </vehicle>
    <vehicle id="NS_car.34" type="car" depart="154.53">
        <route edges="-E3 -E0"/>
    </vehicle>
    <vehicle id="SN_car.36" type="car" depart="155.02">
        <route edges="-E2 -E2.41 -E0"/>
    </vehicle>
    <vehicle id="EW_car.23" type="car" depart="156.81">
        <route edges="-E1 -E1.42 E2"/>
    </vehicle>
    <vehicle id="NS_car.35" type="car" depart="159.08">
        <route edges="-E3 E2"/>
    </vehicle>
    <vehicle id="SN_car.37" type="car" depart="159.32">
        <route edges="-E2 -E2.41 -E0"/>
    </vehicle>
    <vehicle id="WE_car.21" type="car" depart="160.50">
        <route edges="E0 E0.40 E1"/>
    </vehicle>
    <vehicle id="NS_car.36" type="car" depart="163.62">
        <route edges="-E3 E2"/>
    </vehicle>
    <vehicle id="SN_car.38" type="car" depart="163.63">
        <route edges="-E2 -E2.41 E3"/>
    </vehicle>
    <vehicle id="EW_car.24" type="car" depart="163.63">
        <route edges="-E1 -E1.42 E2"/>
    </vehicle>
    <vehicle id="SN_car.39" type="car" depart="167.93">
        <route edges="-E2 -E2.41 E1"/>
    </vehicle>
    <vehicle id="WE_car.22" type="car" depart="168.15">
        <route edges="E0 E0.40 E2"/>
    </vehicle>
    <vehicle id="NS_car.37" type="car" depart="168.17">
        <route edges="-E3 E2"/>
    </vehicle>
    <vehicle id="EW_car.25" type="car" depart="170.45">
        <route edges="-E1 -E1.42 E2"/>
    </vehicle>
    <vehicle id="SN_car.40" type="car" depart="172.24">
        <route edges="-E2 -E2.41 E3"/>
    </vehicle>
    <vehicle id="NS_car.38" type="car" depart="172.71">
        <route edges="-E3 E1"/>
    </vehicle>
    <vehicle id="WE_car.23" type="car" depart="175.79">
        <route edges="E0 E0.40 E2"/>
    </vehicle>
    <vehicle id="SN_car.41" type="car" depart="176.55">
        <route edges="-E2 -E2.41 E1"/>
    </vehicle>
    <vehicle id="NS_car.39" type="car" depart="177.26">
        <route edges="-E3 -E0"/>
    </vehicle>
    <vehicle id="EW_car.26" type="car" depart="177.27">
        <route edges="-E1 -E1.42 E3"/>
    </vehicle>
    <vehicle id="SN_car.42" type="car" depart="180.85">
        <route edges="-E2 -E2.41 -E0"/>
    </vehicle>
    <vehicle id="NS_car.40" type="car" depart="181.80">
        <route edges="-E3 E2"/>
    </vehicle>
    <vehicle id="WE_car.24" type="car" depart="183.43">
        <route edges="E0 E0.40 E1"/>
    </vehicle>
    <vehicle id="EW_car.27" type="car" depart="184.09">
        <route edges="-E1 -E1.42 -E0"/>
    </vehicle>
    <vehicle id="SN_car.43" type="car" depart="185.16">
        <route edges="-E2 -E2.41 E1"/>
    </vehicle>
    <vehicle id="NS_car.41" type="car" depart="186.35">
        <route edges="-E3 E2"/>
    </vehicle>
    <vehicle id="SN_car.44" type="car" depart="189.46">
        <route edges="-E2 -E2.41 E1"/>
    </vehicle>
    <vehicle id="NS_car.42" type="car" depart="190.89">
        <route edges="-E3 E2"/>
    </vehicle>
    <vehicle id="EW_car.28" type="car" depart="190.90">
        <route edges="-E1 -E1.42 -E0"/>
    </vehicle>
    <vehicle id="WE_car.25" type="car" depart="191.08">
        <route edges="E0 E0.40 E2"/>
    </vehicle>
    <vehicle id="SN_car.45" type="car" depart="193.77">
        <route edges="-E2 -E2.41 -E0"/>
    </vehicle>
    <vehicle id="NS_car.43" type="car" depart="195.44">
        <route edges="-E3 -E0"/>
    </vehicle>
    <vehicle id="EW_car.29" type="car" depart="197.72">
        <route edges="-E1 -E1.42 -E0"/>
    </vehicle>
    <vehicle id="SN_car.46" type="car" depart="198.08">
        <route edges="-E2 -E2.41 -E0"/>
    </vehicle>
    <vehicle id="WE_car.26" type="car" depart="198.72">
        <route edges="E0 E0.40 E3"/>
    </vehicle>
    <vehicle id="NS_car.44" type="car" depart="199.98">
        <route edges="-E3 E1"/>
    </vehicle>
    <vehicle id="SN_car.47" type="car" depart="202.38">
        <route edges="-E2 -E2.41 E1"/>
    </vehicle>
    <vehicle id="NS_car.45" type="car" depart="204.53">
        <route edges="-E3 E1"/>
    </vehicle>
    <vehicle id="EW_car.30" type="car" depart="204.54">
        <route edges="-E1 -E1.42 E3"/>
    </vehicle>
    <vehicle id="WE_car.27" type="car" depart="206.36">
        <route edges="E0 E0.40 E1"/>
    </vehicle>
    <vehicle id="SN_car.48" type="car" depart="206.69">
        <route edges="-E2 -E2.41 E3"/>
    </vehicle>
    <vehicle id="NS_car.46" type="car" depart="209.07">
        <route edges="-E3 -E0"/>
    </vehicle>
    <vehicle id="SN_car.49" type="car" depart="210.99">
        <route edges="-E2 -E2.41 -E0"/>
    </vehicle>
    <vehicle id="EW_car.31" type="car" depart="211.36">
        <route edges="-E1 -E1.42 E2"/>
    </vehicle>
    <vehicle id="NS_car.47" type="car" depart="213.62">
        <route edges="-E3 -E0"/>
    </vehicle>
    <vehicle id="WE_car.28" type="car" depart="214.00">
        <route edges="E0 E0.40 E3"/>
    </vehicle>
    <vehicle id="SN_car.50" type="car" depart="215.30">
        <route edges="-E2 -E2.41 -E0"/>
    </vehicle>
    <vehicle id="NS_car.48" type="car" depart="218.16">
        <route edges="-E3 E2"/>
    </vehicle>
    <vehicle id="EW_car.32" type="car" depart="218.18">
        <route edges="-E1 -E1.42 -E0"/>
    </vehicle>
    <vehicle id="SN_car.51" type="car" depart="219.61">
        <route edges="-E2 -E2.41 E3"/>
    </vehicle>
    <vehicle id="WE_car.29" type="car" depart="221.65">
        <route edges="E0 E0.40 E3"/>
    </vehicle>
    <vehicle id="NS_car.49" type="car" depart="222.71">
        <route edges="-E3 E2"/>
    </vehicle>
    <vehicle id="SN_car.52" type="car" depart="223.91">
        <route edges="-E2 -E2.41 E1"/>
    </vehicle>
    <vehicle id="EW_car.33" type="car" depart="224.99">
        <route edges="-E1 -E1.42 -E0"/>
    </vehicle>
    <vehicle id="NS_car.50" type="car" depart="227.25">
        <route edges="-E3 -E0"/>
    </vehicle>
    <vehicle id="SN_car.53" type="car" depart="228.22">
        <route edges="-E2 -E2.41 E3"/>
    </vehicle>
    <vehicle id="WE_car.30" type="car" depart="229.29">
        <route edges="E0 E0.40 E3"/>
    </vehicle>
    <vehicle id="NS_car.51" type="car" depart="231.80">
        <route edges="-E3 -E0"/>
    </vehicle>
    <vehicle id="EW_car.34" type="car" depart="231.81">
        <route edges="-E1 -E1.42 E2"/>
    </vehicle>
    <vehicle id="SN_car.54" type="car" depart="232.52">
        <route edges="-E2 -E2.41 E1"/>
    </vehicle>
    <vehicle id="NS_car.52" type="car" depart="236.34">
        <route edges="-E3 E2"/>
    </vehicle>
    <vehicle id="SN_car.55" type="car" depart="236.83">
        <route edges="-E2 -E2.41 E3"/>
    </vehicle>
    <vehicle id="WE_car.31" type="car" depart="236.93">
        <route edges="E0 E0.40 E1"/>
    </vehicle>
    <vehicle id="EW_car.35" type="car" depart="238.63">
        <route edges="-E1 -E1.42 E3"/>
    </vehicle>
    <vehicle id="NS_car.53" type="car" depart="240.89">
        <route edges="-E3 E2"/>
    </vehicle>
    <vehicle id="SN_car.56" type="car" depart="241.14">
        <route edges="-E2 -E2.41 -E0"/>
    </vehicle>
    <vehicle id="WE_car.32" type="car" depart="244.58">
        <route edges="E0 E0.40 E3"/>
    </vehicle>
    <vehicle id="NS_car.54" type="car" depart="245.43">
        <route edges="-E3 E2"/>
    </vehicle>
    <vehicle id="SN_car.57" type="car" depart="245.44">
        <route edges="-E2 -E2.41 -E0"/>
    </vehicle>
    <vehicle id="EW_car.36" type="car" depart="245.45">
        <route edges="-E1 -E1.42 -E0"/>
    </vehicle>
    <vehicle id="SN_car.58" type="car" depart="249.75">
        <route edges="-E2 -E2.41 E3"/>
    </vehicle>
    <vehicle id="NS_car.55" type="car" depart="249.98">
        <route edges="-E3 E2"/>
    </vehicle>
    <vehicle id="WE_car.33" type="car" depart="252.22">
        <route edges="E0 E0.40 E1"/>
    </vehicle>
    <vehicle id="EW_car.37" type="car" depart="252.27">
        <route edges="-E1 -E1.42 -E0"/>
    </vehicle>
    <vehicle id="SN_car.59" type="car" depart="254.05">
        <route edges="-E2 -E2.41 E1"/>
    </vehicle>
    <vehicle id="NS_car.56" type="car" depart="254.52">
        <route edges="-E3 E2"/>
    </vehicle>
    <vehicle id="SN_car.60" type="car" depart="258.36">
        <route edges="-E2 -E2.41 E3"/>
    </vehicle>
    <vehicle id="NS_car.57" type="car" depart="259.07">
        <route edges="-E3 -E0"/>
    </vehicle>
    <vehicle id="EW_car.38" type="car" depart="259.08">
        <route edges="-E1 -E1.42 E3"/>
    </vehicle>
    <vehicle id="WE_car.34" type="car" depart="259.86">
        <route edges="E0 E0.40 E1"/>
    </vehicle>
    <vehicle id="SN_car.61" type="car" depart="262.67">
        <route edges="-E2 -E2.41 E1"/>
    </vehicle>
    <vehicle id="NS_car.58" type="car" depart="263.61">
        <route edges="-E3 E2"/>
    </vehicle>
    <vehicle id="EW_car.39" type="car" depart="265.90">
        <route edges="-E1 -E1.42 -E0"/>
    </vehicle>
    <vehicle id="SN_car.62" type="car" depart="266.97">
        <route edges="-E2 -E2.41 -E0"/>
    </vehicle>
    <vehicle id="WE_car.35" type="car" depart="267.51">
        <route edges="E0 E0.40 E1"/>
    </vehicle>
    <vehicle id="NS_car.59" type="car" depart="268.16">
        <route edges="-E3 -E0"/>
    </vehicle>
    <vehicle id="SN_car.63" type="car" depart="271.28">
        <route edges="-E2 -E2.41 E1"/>
    </vehicle>
    <vehicle id="NS_car.60" type="car" depart="272.70">
        <route edges="-E3 E2"/>
    </vehicle>
    <vehicle id="EW_car.40" type="car" depart="272.72">
        <route edges="-E1 -E1.42 -E0"/>
    </vehicle>
    <vehicle id="WE_car.36" type="car" depart="275.15">
        <route edges="E0 E0.40 E2"/>
    </vehicle>
    <vehicle id="SN_car.64" type="car" depart="275.58">
        <route edges="-E2 -E2.41 E1"/>
    </vehicle>
    <vehicle id="NS_car.61" type="car" depart="277.25">
        <route edges="-E3 E1"/>
    </vehicle>
    <vehicle id="EW_car.41" type="car" depart="279.54">
        <route edges="-E1 -E1.42 -E0"/>
    </vehicle>
    <vehicle id="SN_car.65" type="car" depart="279.89">
        <route edges="-E2 -E2.41 -E0"/>
    </vehicle>
    <vehicle id="NS_car.62" type="car" depart="281.79">
        <route edges="-E3 -E0"/>
    </vehicle>
    <vehicle id="WE_car.37" type="car" depart="282.79">
        <route edges="E0 E0.40 E3"/>
    </vehicle>
    <vehicle id="SN_car.66" type="car" depart="284.20">
        <route edges="-E2 -E2.41 E3"/>
    </vehicle>
    <vehicle id="NS_car.63" type="car" depart="286.34">
        <route edges="-E3 E2"/>
    </vehicle>
    <vehicle id="EW_car.42" type="car" depart="286.36">
        <route edges="-E1 -E1.42 E2"/>
    </vehicle>
    <vehicle id="SN_car.67" type="car" depart="288.50">
        <route edges="-E2 -E2.41 -E0"/>
    </vehicle>
    <vehicle id="WE_car.38" type="car" depart="290.43">
        <route edges="E0 E0.40 E3"/>
    </vehicle>
    <vehicle id="NS_car.64" type="car" depart="290.88">
        <route edges="-E3 E2"/>
    </vehicle>
    <vehicle id="SN_car.68" type="car" depart="292.81">
        <route edges="-E2 -E2.41 E3"/>
    </vehicle>
    <vehicle id="EW_car.43" type="car" depart="293.17">
        <route edges="-E1 -E1.42 E2"/>
    </vehicle>
    <vehicle id="NS_car.65" type="car" depart="295.43">
        <route edges="-E3 -E0"/>
    </vehicle>
    <vehicle id="SN_car.69" type="car" depart="297.11">
        <route edges="-E2 -E2.41 E3"/>
    </vehicle>
    <vehicle id="WE_car.39" type="car" depart="298.08">
        <route edges="E0 E0.40 E1"/>
    </vehicle>
    <vehicle id="NS_car.66" type="car" depart="299.97">
        <route edges="-E3 -E0"/>
    </vehicle>
    <vehicle id="EW_car.44" type="car" depart="299.99">
        <route edges="-E1 -E1.42 E3"/>
    </vehicle>
    <vehicle id="SN_car.70" type="car" depart="301.42">
        <route edges="-E2 -E2.41 E3"/>
    </vehicle>
    <vehicle id="NS_car.67" type="car" depart="304.52">
        <route edges="-E3 E2"/>
    </vehicle>
    <vehicle id="WE_car.40" type="car" depart="305.72">
        <route edges="E0 E0.40 E2"/>
    </vehicle>
    <vehicle id="SN_car.71" type="car" depart="305.73">
        <route edges="-E2 -E2.41 E3"/>
    </vehicle>
    <vehicle id="EW_car.45" type="car" depart="306.81">
        <route edges="-E1 -E1.42 E2"/>
    </vehicle>
    <vehicle id="NS_car.68" type="car" depart="309.06">
        <route edges="-E3 E1"/>
    </vehicle>
    <vehicle id="SN_car.72" type="car" depart="310.03">
        <route edges="-E2 -E2.41 E1"/>
    </vehicle>
    <vehicle id="WE_car.41" type="car" depart="313.36">
        <route edges="E0 E0.40 E1"/>
    </vehicle>
    <vehicle id="NS_car.69" type="car" depart="313.61">
        <route edges="-E3 E1"/>
    </vehicle>
    <vehicle id="EW_car.46" type="car" depart="313.63">
        <route edges="-E1 -E1.42 E3"/>
    </vehicle>
    <vehicle id="SN_car.73" type="car" depart="314.34">
        <route edges="-E2 -E2.41 -E0"/>
    </vehicle>
    <vehicle id="NS_car.70" type="car" depart="318.15">
        <route edges="-E3 -E0"/>
    </vehicle>
    <vehicle id="SN_car.74" type="car" depart="318.64">
        <route edges="-E2 -E2.41 E3"/>
    </vehicle>
    <vehicle id="EW_car.47" type="car" depart="320.45">
        <route edges="-E1 -E1.42 E2"/>
    </vehicle>
    <vehicle id="WE_car.42" type="car" depart="321.01">
        <route edges="E0 E0.40 E1"/>
    </vehicle>
    <vehicle id="NS_car.71" type="car" depart="322.70">
        <route edges="-E3 -E0"/>
    </vehicle>
    <vehicle id="SN_car.75" type="car" depart="322.95">
        <route edges="-E2 -E2.41 -E0"/>
    </vehicle>
    <vehicle id="NS_car.72" type="car" depart="327.24">
        <route edges="-E3 E2"/>
    </vehicle>
    <vehicle id="SN_car.76" type="car" depart="327.26">
        <route edges="-E2 -E2.41 -E0"/>
    </vehicle>
    <vehicle id="EW_car.48" type="car" depart="327.26">
        <route edges="-E1 -E1.42 E3"/>
    </vehicle>
    <vehicle id="WE_car.43" type="car" depart="328.65">
        <route edges="E0 E0.40 E3"/>
    </vehicle>
    <vehicle id="SN_car.77" type="car" depart="331.56">
        <route edges="-E2 -E2.41 E3"/>
    </vehicle>
    <vehicle id="NS_car.73" type="car" depart="331.79">
        <route edges="-E3 E1"/>
    </vehicle>
    <vehicle id="EW_car.49" type="car" depart="334.08">
        <route edges="-E1 -E1.42 E3"/>
    </vehicle>
    <vehicle id="SN_car.78" type="car" depart="335.87">
        <route edges="-E2 -E2.41 E1"/>
    </vehicle>
    <vehicle id="WE_car.44" type="car" depart="336.29">
        <route edges="E0 E0.40 E2"/>
    </vehicle>
    <vehicle id="NS_car.74" type="car" depart="336.33">
        <route edges="-E3 E2"/>
    </vehicle>
    <vehicle id="SN_car.79" type="car" depart="340.17">
        <route edges="-E2 -E2.41 -E0"/>
    </vehicle>
    <vehicle id="NS_car.75" type="car" depart="340.88">
        <route edges="-E3 -E0"/>
    </vehicle>
    <vehicle id="EW_car.50" type="car" depart="340.90">
        <route edges="-E1 -E1.42 E2"/>
    </vehicle>
    <vehicle id="WE_car.45" type="car" depart="343.94">
        <route edges="E0 E0.40 E1"/>
    </vehicle>
    <vehicle id="SN_car.80" type="car" depart="344.48">
        <route edges="-E2 -E2.41 E1"/>
    </vehicle>
    <vehicle id="NS_car.76" type="car" depart="345.42">
        <route edges="-E3 E1"/>
    </vehicle>
    <vehicle id="EW_car.51" type="car" depart="347.72">
        <route edges="-E1 -E1.42 E2"/>
    </vehicle>
    <vehicle id="SN_car.81" type="car" depart="348.79">
        <route edges="-E2 -E2.41 E3"/>
    </vehicle>
    <vehicle id="NS_car.77" type="car" depart="349.97">
        <route edges="-E3 E1"/>
    </vehicle>
    <vehicle id="WE_car.46" type="car" depart="351.58">
        <route edges="E0 E0.40 E1"/>
    </vehicle>
    <vehicle id="SN_car.82" type="car" depart="353.09">
        <route edges="-E2 -E2.41 E3"/>
    </vehicle>
    <vehicle id="NS_car.78" type="car" depart="354.51">
        <route edges="-E3 E1"/>
    </vehicle>
    <vehicle id="EW_car.52" type="car" depart="354.54">
        <route edges="-E1 -E1.42 E2"/>
    </vehicle>
    <vehicle id="SN_car.83" type="car" depart="357.40">
        <route edges="-E2 -E2.41 -E0"/>
    </vehicle>
    <vehicle id="NS_car.79" type="car" depart="359.06">
        <route edges="-E3 E2"/>
    </vehicle>
    <vehicle id="WE_car.47" type="car" depart="359.22">
        <route edges="E0 E0.40 E2"/>
    </vehicle>
    <vehicle id="EW_car.53" type="car" depart="361.35">
        <route edges="-E1 -E1.42 E3"/>
    </vehicle>
    <vehicle id="SN_car.84" type="car" depart="361.70">
        <route edges="-E2 -E2.41 -E0"/>
    </vehicle>
    <vehicle id="NS_car.80" type="car" depart="363.60">
        <route edges="-E3 E1"/>
    </vehicle>
    <vehicle id="SN_car.85" type="car" depart="366.01">
        <route edges="-E2 -E2.41 E1"/>
    </vehicle>
    <vehicle id="WE_car.48" type="car" depart="366.86">
        <route edges="E0 E0.40 E1"/>
    </vehicle>
    <vehicle id="NS_car.81" type="car" depart="368.15">
        <route edges="-E3 E1"/>
    </vehicle>
    <vehicle id="EW_car.54" type="car" depart="368.17">