<?xml version="1.0" encoding="UTF-8"?>

<!-- generated on 2026-05-23 16:39:47 by Eclipse SUMO jtrrouter Version 1.13.0
<configuration xmlns:xsi="http://www.w3.org/2001/XMLSchema-instance" xsi:noNamespaceSchemaLocation="http://sumo.dlr.de/xsd/jtrrouterConfiguration.xsd">

    <input>
        <net-file value="1.net.xml"/>
        <route-files value="1.flow.xml"/>
        <turn-ratio-files value="1.turn.xml"/>
    </input>

    <output>
        <output-file value="1.rou.xml"/>
    </output>

    <processing>
        <no-internal-links value="true"/>
        <accept-all-destinations value="true"/>
    </processing>

    <time>
        <begin value="0"/>
        <end value="3600"/>
    </time>

</configuration>
-->

<routes xmlns:xsi="http://www.w3.org/2001/XMLSchema-instance" xsi:noNamespaceSchemaLocation="http://sumo.dlr.de/xsd/routes_file.xsd">
    <vType id="car" maxSpeed="37.00" vClass="passenger"/>
    <vehicle id="E_car.0" type="car" depart="0.00">
        <route edges="-E1 E3"/>
    </vehicle>
    <vehicle id="N_car.0" type="car" depart="0.00">
        <route edges="-E3 E2"/>
    </vehicle>
    <vehicle id="S_car.0" type="car" depart="0.00">
        <route edges="-E2 -E0"/>
    </vehicle>
    <vehicle id="W_car.0" type="car" depart="0.00">
        <route edges="E0 E2"/>
    </vehicle>
    <vehicle id="E_car.1" type="car" depart="4.92">
        <route edges="-E1 E2"/>
    </vehicle>
    <vehicle id="W_car.1" type="car" depart="4.92">
        <route edges="E0 E1"/>
    </vehicle>
    <vehicle id="N_car.1" type="car" depart="6.39">
        <route edges="-E3 E2"/>
    </vehicle>
    <vehicle id="S_car.1" type="car" depart="6.39">
        <route edges="-E2 -E0"/>
    </vehicle>
    <vehicle id="E_car.2" type="car" depart="9.84">
        <route edges="-E1 E2"/>
    </vehicle>
    <vehicle id="W_car.2" type="car" depart="9.84">
        <route edges="E0 E3"/>
    </vehicle>
    <vehicle id="N_car.2" type="car" depart="12.79">
        <route edges="-E3 -E0"/>
    </vehicle>
    <vehicle id="S_car.2" type="car" depart="12.79">
        <route edges="-E2 E3"/>
    </vehicle>
    <vehicle id="E_car.3" type="car" depart="14.75">
        <route edges="-E1 E2"/>
    </vehicle>
    <vehicle id="W_car.3" type="car" depart="14.75">
        <route edges="E0 E2"/>
    </vehicle>
    <vehicle id="N_car.3" type="car" depart="19.18">
        <route edges="-E3 E1"/>
    </vehicle>
    <vehicle id="S_car.3" type="car" depart="19.18">
        <route edges="-E2 -E0"/>
    </vehicle>
    <vehicle id="E_car.4" type="car" depart="19.67">
        <route edges="-E1 -E0"/>
    </vehicle>
    <vehicle id="W_car.4" type="car" depart="19.67">
        <route edges="E0 E3"/>
    </vehicle>
    <vehicle id="E_car.5" type="car" depart="24.59">
        <route edges="-E1 -E0"/>
    </vehicle>
    <vehicle id="W_car.5" type="car" depart="24.59">
        <route edges="E0 E3"/>
    </vehicle>
    <vehicle id="N_car.4" type="car" depart="25.58">
        <route edges="-E3 -E0"/>
    </vehicle>
    <vehicle id="S_car.4" type="car" depart="25.58">
        <route edges="-E2 E1"/>
    </vehicle>
    <vehicle id="E_car.6" type="car" depart="29.51">
        <route edges="-E1 -E0"/>
    </vehicle>
    <vehicle id="W_car.6" type="car" depart="29.51">
        <route edges="E0 E2"/>
    </vehicle>
    <vehicle id="N_car.5" type="car" depart="31.97">
        <route edges="-E3 E2"/>
    </vehicle>
    <vehicle id="S_car.5" type="car" depart="31.97">
        <route edges="-E2 E3"/>
    </vehicle>
    <vehicle id="E_car.7" type="car" depart="34.43">
        <route edges="-E1 E3"/>
    </vehicle>
    <vehicle id="W_car.7" type="car" depart="34.43">
        <route edges="E0 E2"/>
    </vehicle>
    <vehicle id="N_car.6" type="car" depart="38.36">
        <route edges="-E3 E1"/>
    </vehicle>
    <vehicle id="S_car.6" type="car" depart="38.36">
        <route edges="-E2 -E0"/>
    </vehicle>
    <vehicle id="E_car.8" type="car" depart="39.34">
        <route edges="-E1 -E0"/>
    </vehicle>
    <vehicle id="W_car.8" type="car" depart="39.34">
        <route edges="E0 E1"/>
    </vehicle>
    <vehicle id="E_car.9" type="car" depart="44.26">
        <route edges="-E1 E3"/>
    </vehicle>
    <vehicle id="W_car.9" type="car" depart="44.26">
        <route edges="E0 E1"/>
    </vehicle>
    <vehicle id="N_car.7" type="car" depart="44.76">
        <route edges="-E3 E2"/>
    </vehicle>
    <vehicle id="S_car.7" type="car" depart="44.76">
        <route edges="-E2 -E0"/>
    </vehicle>
    <vehicle id="E_car.10" type="car" depart="49.18">
        <route edges="-E1 E2"/>
    </vehicle>
    <vehicle id="W_car.10" type="car" depart="49.18">
        <route edges="E0 E1"/>
    </vehicle>
    <vehicle id="N_car.8" type="car" depart="51.15">
        <route edges="-E3 -E0"/>
    </vehicle>
    <vehicle id="S_car.8" type="car" depart="51.15">
        <route edges="-E2 -E0"/>
    </vehicle>
    <vehicle id="E_car.11" type="car" depart="54.10">
        <route edges="-E1 E2"/>
    </vehicle>
    <vehicle id="W_car.11" type="car" depart="54.10">
        <route edges="E0 E3"/>
    </vehicle>
    <vehicle id="N_car.9" type="car" depart="57.55">
        <route edges="-E3 -E0"/>
    </vehicle>
    <vehicle id="S_car.9" type="car" depart="57.55">
        <route edges="-E2 -E0"/>
    </vehicle>
    <vehicle id="E_car.12" type="car" depart="59.02">
        <route edges="-E1 -E0"/>
    </vehicle>
    <vehicle id="W_car.12" type="car" depart="59.02">
        <route edges="E0 E2"/>
    </vehicle>
    <vehicle id="E_car.13" type="car" depart="63.93">
        <route edges="-E1 -E0"/>
    </vehicle>
    <vehicle id="W_car.13" type="car" depart="63.93">
        <route edges="E0 E3"/>
    </vehicle>
    <vehicle id="N_car.10" type="car" depart="63.94">
        <route edges="-E3 -E0"/>
    </vehicle>
    <vehicle id="S_car.10" type="car" depart="63.94">
        <route edges="-E2 E3"/>
    </vehicle>
    <vehicle id="E_car.14" type="car" depart="68.85">
        <route edges="-E1 E3"/>
    </vehicle>
    <vehicle id="W_car.14" type="car" depart="68.85">
        <route edges="E0 E2"/>
    </vehicle>
    <vehicle id="N_car.11" type="car" depart="70.33">
        <route edges="-E3 E2"/>
    </vehicle>
    <vehicle id="S_car.11" type="car" depart="70.33">
        <route edges="-E2 E3"/>
    </vehicle>
    <vehicle id="E_car.15" type="car" depart="73.77">
        <route edges="-E1 E3"/>
    </vehicle>
    <vehicle id="W_car.15" type="car" depart="73.77">
        <route edges="E0 E1"/>
    </vehicle>
    <vehicle id="N_car.12" type="car" depart="76.73">
        <route edges="-E3 E1"/>
    </vehicle>
    <vehicle id="S_car.12" type="car" depart="76.73">
        <route edges="-E2 E1"/>
    </vehicle>
    <vehicle id="E_car.16" type="car" depart="78.69">
        <route edges="-E1 -E0"/>
    </vehicle>
    <vehicle id="W_car.16" type="car" depart="78.69">
        <route edges="E0 E3"/>
    </vehicle>
    <vehicle id="N_car.13" type="car" depart="83.12">
        <route edges="-E3 -E0"/>
    </vehicle>
    <vehicle id="S_car.13" type="car" depart="83.12">
        <route edges="-E2 E3"/>
    </vehicle>
    <vehicle id="E_car.17" type="car" depart="83.61">
        <route edges="-E1 -E0"/>
    </vehicle>
    <vehicle id="W_car.17" type="car" depart="83.61">
        <route edges="E0 E1"/>
    </vehicle>
    <vehicle id="E_car.18" type="car" depart="88.52">
        <route edges="-E1 -E0"/>
    </vehicle>
    <vehicle id="W_car.18" type="car" depart="88.52">
        <route edges="E0 E2"/>
    </vehicle>
    <vehicle id="N_car.14" type="car" depart="89.52">
        <route edges="-E3 E2"/>
    </vehicle>
    <vehicle id="S_car.14" type="car" depart="89.52">
        <route edges="-E2 -E0"/>
    </vehicle>
    <vehicle id="E_car.19" type="car" depart="93.44">
        <route edges="-E1 -E0"/>
    </vehicle>
    <vehicle id="W_car.19" type="car" depart="93.44">
        <route edges="E0 E3"/>
    </vehicle>
    <vehicle id="N_car.15" type="car" depart="95.91">
        <route edges="-E3 E1"/>
    </vehicle>
    <vehicle id="S_car.15" type="car" depart="95.91">
        <route edges="-E2 E1"/>
    </vehicle>
    <vehicle id="E_car.20" type="car" depart="98.36">
        <route edges="-E1 -E0"/>
    </vehicle>
    <vehicle id="W_car.20" type="car" depart="98.36">
        <route edges="E0 E2"/>
    </vehicle>
    <vehicle id="N_car.16" type="car" depart="102.30">
        <route edges="-E3 -E0"/>
    </vehicle>
    <vehicle id="S_car.16" type="car" depart="102.30">
        <route edges="-E2 -E0"/>
    </vehicle>
    <vehicle id="E_car.21" type="car" depart="103.28">
        <route edges="-E1 -E0"/>
    </vehicle>
    <vehicle id="W_car.21" type="car" depart="103.28">
        <route edges="E0 E1"/>
    </vehicle>
    <vehicle id="E_car.22" type="car" depart="108.20">
        <route edges="-E1 E3"/>
    </vehicle>
    <vehicle id="W_car.22" type="car" depart="108.20">
        <route edges="E0 E1"/>
    </vehicle>
    <vehicle id="N_car.17" type="car" depart="108.70">
        <route edges="-E3 -E0"/>
    </vehicle>
    <vehicle id="S_car.17" type="car" depart="108.70">
        <route edges="-E2 -E0"/>
    </vehicle>
    <vehicle id="E_car.23" type="car" depart="113.11">
        <route edges="-E1 E2"/>
    </vehicle>
    <vehicle id="W_car.23" type="car" depart="113.11">
        <route edges="E0 E2"/>
    </vehicle>
    <vehicle id="N_car.18" type="car" depart="115.09">
        <route edges="-E3 E2"/>
    </vehicle>
    <vehicle id="S_car.18" type="car" depart="115.09">
        <route edges="-E2 E1"/>
    </vehicle>
    <vehicle id="E_car.24" type="car" depart="118.03">
        <route edges="-E1 E2"/>
    </vehicle>
    <vehicle id="W_car.24" type="car" depart="118.03">
        <route edges="E0 E3"/>
    </vehicle>
    <vehicle id="N_car.19" type="car" depart="121.49">
        <route edges="-E3 E1"/>
    </vehicle>
    <vehicle id="S_car.19" type="car" depart="121.49">
        <route edges="-E2 E1"/>
    </vehicle>
    <vehicle id="E_car.25" type="car" depart="122.95">
        <route edges="-E1 -E0"/>
    </vehicle>
    <vehicle id="W_car.25" type="car" depart="122.95">
        <route edges="E0 E3"/>
    </vehicle>
    <vehicle id="E_car.26" type="car" depart="127.87">
        <route edges="-E1 -E0"/>
    </vehicle>
    <vehicle id="W_car.26" type="car" depart="127.87">
        <route edges="E0 E1"/>
    </vehicle>
    <vehicle id="N_car.20" type="car" depart="127.88">
        <route edges="-E3 -E0"/>
    </vehicle>
    <vehicle id="S_car.20" type="car" depart="127.88">
        <route edges="-E2 E3"/>
    </vehicle>
    <vehicle id="E_car.27" type="car" depart="132.79">
        <route edges="-E1 E2"/>
    </vehicle>
    <vehicle id="W_car.27" type="car" depart="132.79">
        <route edges="E0 E3"/>
    </vehicle>
    <vehicle id="N_car.21" type="car" depart="134.27">
        <route edges="-E3 E1"/>
    </vehicle>
    <vehicle id="S_car.21" type="car" depart="134.27">
        <route edges="-E2 E1"/>
    </vehicle>
    <vehicle id="E_car.28" type="car" depart="137.70">
        <route edges="-E1 E2"/>
    </vehicle>
    <vehicle id="W_car.28" type="car" depart="137.70">
        <route edges="E0 E2"/>
    </vehicle>
    <vehicle id="N_car.22" type="car" depart="140.67">
        <route edges="-E3 E2"/>
    </vehicle>
    <vehicle id="S_car.22" type="car" depart="140.67">
        <route edges="-E2 E1"/>
    </vehicle>
    <vehicle id="E_car.29" type="car" depart="142.62">
        <route edges="-E1 E3"/>
    </vehicle>
    <vehicle id="W_car.29" type="car" depart="142.62">
        <route edges="E0 E1"/>
    </vehicle>
    <vehicle id="N_car.23" type="car" depart="147.06">
        <route edges="-E3 E1"/>
    </vehicle>
    <vehicle id="S_car.23" type="car" depart="147.06">
        <route edges="-E2 E1"/>
    </vehicle>
    <vehicle id="E_car.30" type="car" depart="147.54">
        <route edges="-E1 E2"/>
    </vehicle>
    <vehicle id="W_car.30" type="car" depart="147.54">
        <route edges="E0 E1"/>
    </vehicle>
    <vehicle id="E_car.31" type="car" depart="152.46">
        <route edges="-E1 E2"/>
    </vehicle>
    <vehicle id="W_car.31" type="car" depart="152.46">
        <route edges="E0 E2"/>
    </vehicle>
    <vehicle id="N_car.24" type="car" depart="153.46">
        <route edges="-E3 E2"/>
    </vehicle>
    <vehicle id="S_car.24" type="car" depart="153.46">
        <route edges="-E2 -E0"/>
    </vehicle>
    <vehicle id="E_car.32" type="car" depart="157.38">
        <route edges="-E1 E2"/>
    </vehicle>
    <vehicle id="W_car.32" type="car" depart="157.38">
        <route edges="E0 E1"/>
    </vehicle>
    <vehicle id="N_car.25" type="car" depart="159.85">
        <route edges="-E3 E2"/>
    </vehicle>
    <vehicle id="S_car.25" type="car" depart="159.85">
        <route edges="-E2 -E0"/>
    </vehicle>
    <vehicle id="E_car.33" type="car" depart="162.29">
        <route edges="-E1 E3"/>
    </vehicle>
    <vehicle id="W_car.33" type="car" depart="162.29">
        <route edges="E0 E1"/>
    </vehicle>
    <vehicle id="N_car.26" type="car" depart="166.24">
        <route edges="-E3 E1"/>
    </vehicle>
    <vehicle id="S_car.26" type="car" depart="166.24">
        <route edges="-E2 -E0"/>
    </vehicle>
    <vehicle id="E_car.34" type="car" depart="167.21">
        <route edges="-E1 E2"/>
    </vehicle>
    <vehicle id="W_car.34" type="car" depart="167.21">
        <route edges="E0 E3"/>
    </vehicle>
    <vehicle id="E_car.35" type="car" depart="172.13">
        <route edges="-E1 E3"/>
    </vehicle>
    <vehicle id="W_car.35" type="car" depart="172.13">
        <route edges="E0 E3"/>
    </vehicle>
    <vehicle id="N_car.27" type="car" depart="172.64">
        <route edges="-E3 -E0"/>
    </vehicle>
    <vehicle id="S_car.27" type="car" depart="172.64">
        <route edges="-E2 E3"/>
    </vehicle>
    <vehicle id="E_car.36" type="car" depart="177.05">
        <route edges="-E1 -E0"/>
    </vehicle>
    <vehicle id="W_car.36" type="car" depart="177.05">
        <route edges="E0 E2"/>
    </vehicle>
    <vehicle id="N_car.28" type="car" depart="179.03">
        <route edges="-E3 E1"/>
    </vehicle>
    <vehicle id="S_car.28" type="car" depart="179.03">
        <route edges="-E2 E1"/>
    </vehicle>
    <vehicle id="E_car.37" type="car" depart="181.97">
        <route edges="-E1 -E0"/>
    </vehicle>
    <vehicle id="W_car.37" type="car" depart="181.97">
        <route edges="E0 E1"/>
    </vehicle>
    <vehicle id="N_car.29" type="car" depart="185.43">
        <route edges="-E3 E2"/>
    </vehicle>
    <vehicle id="S_car.29" type="car" depart="185.43">
        <route edges="-E2 E1"/>
    </vehicle>
    <vehicle id="E_car.38" type="car" depart="186.88">
        <route edges="-E1 E2"/>
    </vehicle>
    <vehicle id="W_car.38" type="car" depart="186.88">
        <route edges="E0 E1"/>
    </vehicle>
    <vehicle id="E_car.39" type="car" depart="191.80">
        <route edges="-E1 E3"/>
    </vehicle>
    <vehicle id="W_car.39" type="car" depart="191.80">
        <route edges="E0 E2"/>
    </vehicle>
    <vehicle id="N_car.30" type="car" depart="191.82">
        <route edges="-E3 E2"/>
    </vehicle>
    <vehicle id="S_car.30" type="car" depart="191.82">
        <route edges="-E2 E3"/>
    </vehicle>
    <vehicle id="E_car.40" type="car" depart="196.72">
        <route edges="-E1 E2"/>
    </vehicle>
    <vehicle id="W_car.40" type="car" depart="196.72">
        <route edges="E0 E1"/>
    </vehicle>
    <vehicle id="N_car.31" type="car" depart="198.21">
        <route edges="-E3 E2"/>
    </vehicle>
    <vehicle id="S_car.31" type="car" depart="198.21">
        <route edges="-E2 E3"/>
    </vehicle>
    <vehicle id="E_car.41" type="car" depart="201.64">
        <route edges="-E1 E2"/>
    </vehicle>
    <vehicle id="W_car.41" type="car" depart="201.64">
        <route edges="E0 E3"/>
    </vehicle>
    <vehicle id="N_car.32" type="car" depart="204.61">
        <route edges="-E3 -E0"/>
    </vehicle>
    <vehicle id="S_car.32" type="car" depart="204.61">
        <route edges="-E2 E1"/>
    </vehicle>
    <vehicle id="E_car.42" type="car" depart="206.56">
        <route edges="-E1 E3"/>
    </vehicle>
    <vehicle id="W_car.42" type="car" depart="206.56">
        <route edges="E0 E2"/>
    </vehicle>
    <vehicle id="N_car.33" type="car" depart="211.00">
        <route edges="-E3 E1"/>
    </vehicle>
    <vehicle id="S_car.33" type="car" depart="211.00">
        <route edges="-E2 -E0"/>
    </vehicle>
    <vehicle id="E_car.43" type="car" depart="211.47">
        <route edges="-E1 E2"/>
    </vehicle>
    <vehicle id="W_car.43" type="car" depart="211.47">
        <route edges="E0 E3"/>
    </vehicle>
    <vehicle id="E_car.44" type="car" depart="216.39">
        <route edges="-E1 -E0"/>
    </vehicle>
    <vehicle id="W_car.44" type="car" depart="216.39">
        <route edges="E0 E2"/>
    </vehicle>
    <vehicle id="N_car.34" type="car" depart="217.40">
        <route edges="-E3 E2"/>
    </vehicle>
    <vehicle id="S_car.34" type="car" depart="217.40">
        <route edges="-E2 E1"/>
    </vehicle>
    <vehicle id="E_car.45" type="car" depart="221.31">
        <route edges="-E1 -E0"/>
    </vehicle>
    <vehicle id="W_car.45" type="car" depart="221.31">
        <route edges="E0 E3"/>
    </vehicle>
    <vehicle id="N_car.35" type="car" depart="223.79">
        <route edges="-E3 E2"/>
    </vehicle>
    <vehicle id="S_car.35" type="car" depart="223.79">
        <route edges="-E2 E1"/>
    </vehicle>
    <vehicle id="E_car.46" type="car" depart="226.23">
        <route edges="-E1 E3"/>
    </vehicle>
    <vehicle id="W_car.46" type="car" depart="226.23">
        <route edges="E0 E2"/>
    </vehicle>
    <vehicle id="N_car.36" type="car" depart="230.18">
        <route edges="-E3 E2"/>
    </vehicle>
    <vehicle id="S_car.36" type="car" depart="230.18">
        <route edges="-E2 E3"/>
    </vehicle>
    <vehicle id="E_car.47" type="car" depart="231.15">
        <route edges="-E1 E2"/>
    </vehicle>
    <vehicle id="W_car.47" type="car" depart="231.15">
        <route edges="E0 E3"/>
    </vehicle>
    <vehicle id="E_car.48" type="car" depart="236.06">
        <route edges="-E1 -E0"/>
    </vehicle>
    <vehicle id="W_car.48" type="car" depart="236.06">
        <route edges="E0 E1"/>
    </vehicle>
    <vehicle id="N_car.37" type="car" depart="236.58">
        <route edges="-E3 -E0"/>
    </vehicle>
    <vehicle id="S_car.37" type="car" depart="236.58">
        <route edges="-E2 E1"/>
    </vehicle>
    <vehicle id="E_car.49" type="car" depart="240.98">
        <route edges="-E1 -E0"/>
    </vehicle>
    <vehicle id="W_car.49" type="car" depart="240.98">
        <route edges="E0 E3"/>
    </vehicle>
    <vehicle id="N_car.38" type="car" depart="242.97">
        <route edges="-E3 E1"/>
    </vehicle>
    <vehicle id="S_car.38" type="car" depart="242.97">
        <route edges="-E2 E1"/>
    </vehicle>
    <vehicle id="E_car.50" type="car" depart="245.90">
        <route edges="-E1 E3"/>
    </vehicle>
    <vehicle id="W_car.50" type="car" depart="245.90">
        <route edges="E0 E1"/>
    </vehicle>
    <vehicle id="N_car.39" type="car" depart="249.37">
        <route edges="-E3 E1"/>
    </vehicle>
    <vehicle id="S_car.39" type="car" depart="249.37">
        <route edges="-E2 -E0"/>
    </vehicle>
    <vehicle id="E_car.51" type="car" depart="250.82">
        <route edges="-E1 E3"/>
    </vehicle>
    <vehicle id="W_car.51" type="car" depart="250.82">
        <route edges="E0 E1"/>
    </vehicle>
    <vehicle id="E_car.52" type="car" depart="255.74">
        <route edges="-E1 -E0"/>
    </vehicle>
    <vehicle id="W_car.52" type="car" depart="255.74">
        <route edges="E0 E1"/>
    </vehicle>
    <vehicle id="N_car.40" type="car" depart="255.76">
        <route edges="-E3 -E0"/>
    </vehicle>
    <vehicle id="S_car.40" type="car" depart="255.76">
        <route edges="-E2 -E0"/>
    </vehicle>
    <vehicle id="E_car.53" type="car" depart="260.65">
        <route edges="-E1 E3"/>
    </vehicle>
    <vehicle id="W_car.53" type="car" depart="260.65">
        <route edges="E0 E1"/>
    </vehicle>
    <vehicle id="N_car.41" type="car" depart="262.15">
        <route edges="-E3 -E0"/>
    </vehicle>
    <vehicle id="S_car.41" type="car" depart="262.15">
        <route edges="-E2 E3"/>
    </vehicle>
    <vehicle id="E_car.54" type="car" depart="265.57">
        <route edges="-E1 E2"/>
    </vehicle>
    <vehicle id="W_car.54" type="car" depart="265.57">
        <route edges="E0 E1"/>
    </vehicle>
    <vehicle id="N_car.42" type="car" depart="268.55">
        <route edges="-E3 -E0"/>
    </vehicle>
    <vehicle id="S_car.42" type="car" depart="268.55">
        <route edges="-E2 E3"/>
    </vehicle>
    <vehicle id="E_car.55" type="car" depart="270.49">
        <route edges="-E1 -E0"/>
    </vehicle>
    <vehicle id="W_car.55" type="car" depart="270.49">
        <route edges="E0 E3"/>
    </vehicle>
    <vehicle id="N_car.43" type="car" depart="274.94">
        <route edges="-E3 E1"/>
    </vehicle>
    <vehicle id="S_car.43" type="car" depart="274.94">
        <route edges="-E2 E3"/>
    </vehicle>
    <vehicle id="E_car.56" type="car" depart="275.41">
        <route edges="-E1 E2"/>
    </vehicle>
    <vehicle id="W_car.56" type="car" depart="275.41">
        <route edges="E0 E1"/>
    </vehicle>
    <vehicle id="E_car.57" type="car" depart="280.33">
        <route edges="-E1 E2"/>
    </vehicle>
    <vehicle id="W_car.57" type="car" depart="280.33">
        <route edges="E0 E1"/>
    </vehicle>
    <vehicle id="N_car.44" type="car" depart="281.34">
        <route edges="-E3 E2"/>
    </vehicle>
    <vehicle id="S_car.44" type="car" depart="281.34">
        <route edges="-E2 E3"/>
    </vehicle>
    <vehicle id="E_car.58" type="car" depart="285.24">
        <route edges="-E1 E2"/>
    </vehicle>
    <vehicle id="W_car.58" type="car" depart="285.24">
        <route edges="E0 E1"/>
    </vehicle>
    <vehicle id="N_car.45" type="car" depart="287.73">
        <route edges="-E3 E1"/>
    </vehicle>
    <vehicle id="S_car.45" type="car" depart="287.73">
        <route edges="-E2 -E0"/>
    </vehicle>
    <vehicle id="E_car.59" type="car" depart="290.16">
        <route edges="-E1 E2"/>
    </vehicle>
    <vehicle id="W_car.59" type="car" depart="290.16">
        <route edges="E0 E1"/>
    </vehicle>
    <vehicle id="N_car.46" type="car" depart="294.12">
        <route edges="-E3 E1"/>
    </vehicle>
    <vehicle id="S_car.46" type="car" depart="294.12">
        <route edges="-E2 E3"/>
    </vehicle>
    <vehicle id="E_car.60" type="car" depart="295.08">
        <route edges="-E1 E3"/>
    </vehicle>
    <vehicle id="W_car.60" type="car" depart="295.08">
        <route edges="E0 E2"/>
    </vehicle>
    <vehicle id="E_car.61" type="car" depart="300.00">
        <route edges="-E1 -E0"/>
    </vehicle>
    <vehicle id="W_car.61" type="car" depart="300.00">
        <route edges="E0 E3"/>
    </vehicle>
    <vehicle id="N_car.47" type="car" depart="300.52">
        <route edges="-E3 E1"/>
    </vehicle>
    <vehicle id="S_car.47" type="car" depart="300.52">
        <route edges="-E2 -E0"/>
    </vehicle>
    <vehicle id="E_car.62" type="car" depart="304.92">
        <route edges="-E1 E2"/>
    </vehicle>
    <vehicle id="W_car.62" type="car" depart="304.92">
        <route edges="E0 E1"/>
    </vehicle>
    <vehicle id="N_car.48" type="car" depart="306.91">
        <route edges="-E3 E1"/>
    </vehicle>
    <vehicle id="S_car.48" type="car" depart="306.91">
        <route edges="-E2 -E0"/>
    </vehicle>
    <vehicle id="E_car.63" type="car" depart="309.83">
        <route edges="-E1 E2"/>
    </vehicle>
    <vehicle id="W_car.63" type="car" depart="309.83">
        <route edges="E0 E3"/>
    </vehicle>
    <vehicle id="N_car.49" type="car" depart="313.31">
        <route edges="-E3 E2"/>
    </vehicle>
    <vehicle id="S_car.49" type="car" depart="313.31">
        <route edges="-E2 -E0"/>
    </vehicle>
    <vehicle id="E_car.64" type="car" depart="314.75">
        <route edges="-E1 E3"/>
    </vehicle>
    <vehicle id="W_car.64" type="car" depart="314.75">
        <route edges="E0 E1"/>
    </vehicle>
    <vehicle id="E_car.65" type="car" depart="319.67">
        <route edges="-E1 -E0"/>
    </vehicle>
    <vehicle id="W_car.65" type="car" depart="319.67">
        <route edges="E0 E1"/>
    </vehicle>
    <vehicle id="N_car.50" type="car" depart="319.70">
        <route edges="-E3 -E0"/>
    </vehicle>
    <vehicle id="S_car.50" type="car" depart="319.70">
        <route edges="-E2 E1"/>
    </vehicle>
    <vehicle id="E_car.66" type="car" depart="324.59">
        <route edges="-E1 -E0"/>
    </vehicle>
    <vehicle id="W_car.66" type="car" depart="324.59">
        <route edges="E0 E3"/>
    </vehicle>
    <vehicle id="N_car.51" type="car" depart="326.09">
        <route edges="-E3 E2"/>
    </vehicle>
    <vehicle id="S_car.51" type="car" depart="326.09">
        <route edges="-E2 E1"/>
    </vehicle>
    <vehicle id="E_car.67" type="car" depart="329.51">
        <route edges="-E1 E3"/>
    </vehicle>
    <vehicle id="W_car.67" type="car" depart="329.51">
        <route edges="E0 E1"/>
    </vehicle>
    <vehicle id="N_car.52" type="car" depart="332.49">
        <route edges="-E3 -E0"/>
    </vehicle>
    <vehicle id="S_car.52" type="car" depart="332.49">
        <route edges="-E2 -E0"/>
    </vehicle>
    <vehicle id="E_car.68" type="car" depart="334.42">
        <route edges="-E1 E2"/>
    </vehicle>
    <vehicle id="W_car.68" type="car" depart="334.42">
        <route edges="E0 E1"/>
    </vehicle>
    <vehicle id="N_car.53" type="car" depart="338.88">
        <route edges="-E3 -E0"/>
    </vehicle>
    <vehicle id="S_car.53" type="car" depart="338.88">
        <route edges="-E2 -E0"/>
    </vehicle>
    <vehicle id="E_car.69" type="car" depart="339.34">
        <route edges="-E1 E3"/>
    </vehicle>
    <vehicle id="W_car.69" type="car" depart="339.34">
        <route edges="E0 E1"/>
    </vehicle>
    <vehicle id="E_car.70" type="car" depart="344.26">
        <route edges="-E1 -E0"/>
    </vehicle>
    <vehicle id="W_car.70" type="car" depart="344.26">
        <route edges="E0 E1"/>
    </vehicle>
    <vehicle id="N_car.54" type="car" depart="345.28">
        <route edges="-E3 -E0"/>
    </vehicle>
    <vehicle id="S_car.54" type="car" depart="345.28">
        <route edges="-E2 E3"/>
    </vehicle>
    <vehicle id="E_car.71" type="car" depart="349.18">
        <route edges="-E1 E2"/>
    </vehicle>
    <vehicle id="W_car.71" type="car" depart="349.18">
        <route edges="E0 E2"/>
    </vehicle>
    <vehicle id="N_car.55" type="car" depart="351.67">
        <route edges="-E3 E1"/>
    </vehicle>
    <vehicle id="S_car.55" type="car" depart="351.67">
        <route edges="-E2 E1"/>
    </vehicle>
    <vehicle id="E_car.72" type="car" depart="354.10">
        <route edges="-E1 E2"/>
    </vehicle>
    <vehicle id="W_car.72" type="car" depart="354.10">
        <route edges="E0 E3"/>
    </vehicle>
    <vehicle id="N_car.56" type="car" depart="358.06">
        <route edges="-E3 E1"/>
    </vehicle>
    <vehicle id="S_car.56" type="car" depart="358.06">
        <route edges="-E2 E1"/>
    </vehicle>
    <vehicle id="E_car.73" type="car" depart="359.01">
        <route edges="-E1 -E0"/>
    </vehicle>
    <vehicle id="W_car.73" type="car" depart="359.01">
        <route edges="E0 E3"/>
    </vehicle>
    <vehicle id="E_car.74" type="car" depart="363.93">
        <route edges="-E1 -E0"/>
    </vehicle>
    <vehicle id="W_car.74" type="car" depart="363.93">
        <route edges="E0 E1"/>
    </vehicle>
    <vehicle id="N_car.57" type="car" depart="364.46">
        <route edges="-E3 -E0"/>
    </vehicle>
    <vehicle id="S_car.57" type="car" depart="364.46">
        <route edges="-E2 E1"/>
    </vehicle>
    <vehicle id="E_car.75" type="car" depart="368.85">
        <route edges="-E1 E2"/>
    </vehicle>
    <vehicle id="W_car.75" type="car" depart="368.85">
        <route edges="E0 E1"/>
    </vehicle>
    <vehicle id="N_car.58" type="car" depart="370.85">
        <route edges="-E3 E2"/>
    </vehicle>
    <vehicle id="S_car.58" type="car" depart="370.85">
        <route edges="-E2 E3"/>
    </vehicle>
    <vehicle id="E_car.76" type="car" depart="373.77">
        <route edges="-E1 E2"/>
    </vehicle>
    <vehicle id="W_car.76" type="car" depart="373.77">
        <route edges="E0 E1"/>
    </vehicle>
    <vehicle id="N_car.59" type="car" depart="377.25">
        <route edges="-E3 E2"/>
    </vehicle>
    <vehicle id="S_car.59" type="car" depart="377.25">
        <route edges="-E2 E3"/>
    </vehicle>
    <vehicle id="E_car.77" type="car" depart="378.69">
        <route edges="-E1 -E0"/>
    </vehicle>
    <vehicle id="W_car.77" type="car" depart="378.69">
        <route edges="E0 E1"/>
    </vehicle>
    <vehicle id="E_car.78" type="car" depart="383.60">
        <route edges="-E1 E3"/>
    </vehicle>
    <vehicle id="W_car.78" type="car" depart="383.60">
        <route edges="E0 E3"/>
    </vehicle>
    <vehicle id="N_car.60" type="car" depart="383.64">
        <route edges="-E3 E2"/>
    </vehicle>
    <vehicle id="S_car.60" type="car" depart="383.64">
        <route edges="-E2 E3"/>
    </vehicle>
    <vehicle id="E_car.79" type="car" depart="388.52">
        <route edges="-E1 -E0"/>
    </vehicle>
    <vehicle id="W_car.79" type="car" depart="388.52">
        <route edges="E0 E2"/>
    </vehicle>
    <vehicle id="N_car.61" type="car" depart="390.03">
        <route edges="-E3 E1"/>
    </vehicle>
    <vehicle id="S_car.61" type="car" depart="390.03">
        <route edges="-E2 E1"/>
    </vehicle>
    <vehicle id="E_car.80" type="car" depart="393.44">
        <route edges="-E1 -E0"/>
    </vehicle>
    <vehicle id="W_car.80" type="car" depart="393.44">
        <route edges="E0 E2"/>
    </vehicle>