<?xml version="1.0" encoding="UTF-8"?>

<!-- generated on 2026-05-23T11:22:10.567502+08:00 by Eclipse SUMO jtrrouter 1.26.0
<jtrrouterConfiguration xmlns:xsi="http://www.w3.org/2001/XMLSchema-instance" xsi:noNamespaceSchemaLocation="http://sumo.dlr.de/xsd/jtrrouterConfiguration.xsd">

    <input>
        <net-file value="demo_4.net.xml"/>
        <route-files value="demo_4.flow.xml"/>
        <turn-ratio-files value="demo_4.turn.xml"/>
    </input>

    <output>
        <output-file value="demo_4.rou.xml"/>
    </output>

    <time>
        <begin value="0"/>
        <end value="3600"/>
    </time>

</jtrrouterConfiguration>
-->

<routes xmlns:xsi="http://www.w3.org/2001/XMLSchema-instance" xsi:noNamespaceSchemaLocation="http://sumo.dlr.de/xsd/routes_file.xsd">
    <vType id="car" maxSpeed="37.00" vClass="passenger"/>
    <vehicle id="EW_car.0" type="car" depart="0.00">
        <route edges="-E1 E3"/>
    </vehicle>
    <vehicle id="NS_car.0" type="car" depart="0.00">
        <route edges="-E3 E2"/>
    </vehicle>
    <vehicle id="SN_car.0" type="car" depart="0.00">
        <route edges="-E2 -E0"/>
    </vehicle>
    <vehicle id="WE_car.0" type="car" depart="0.00">
        <route edges="E0 E1"/>
    </vehicle>
    <vehicle id="SN_car.1" type="car" depart="10.32">
        <route edges="-E2 E3"/>
    </vehicle>
    <vehicle id="WE_car.1" type="car" depart="10.56">
        <route edges="E0 E1"/>
    </vehicle>
    <vehicle id="NS_car.1" type="car" depart="11.01">
        <route edges="-E3 E2"/>
    </vehicle>
    <vehicle id="EW_car.1" type="car" depart="11.39">
        <route edges="-E1 E2"/>
    </vehicle>
    <vehicle id="SN_car.2" type="car" depart="20.63">
        <route edges="-E2 E3"/>
    </vehicle>
    <vehicle id="WE_car.2" type="car" depart="21.11">
        <route edges="E0 E2"/>
    </vehicle>
    <vehicle id="NS_car.2" type="car" depart="22.02">
        <route edges="-E3 -E0"/>
    </vehicle>
    <vehicle id="EW_car.2" type="car" depart="22.78">
        <route edges="-E1 E2"/>
    </vehicle>
    <vehicle id="SN_car.3" type="car" depart="30.95">
        <route edges="-E2 E3"/>
    </vehicle>
    <vehicle id="WE_car.3" type="car" depart="31.67">
        <route edges="E0 E1"/>
    </vehicle>
    <vehicle id="NS_car.3" type="car" depart="33.03">
        <route edges="-E3 E1"/>
    </vehicle>
    <vehicle id="EW_car.3" type="car" depart="34.18">
        <route edges="-E1 E2"/>
    </vehicle>
    <vehicle id="SN_car.4" type="car" depart="41.26">
        <route edges="-E2 -E0"/>
    </vehicle>
    <vehicle id="WE_car.4" type="car" depart="42.23">
        <route edges="E0 E3"/>
    </vehicle>
    <vehicle id="NS_car.4" type="car" depart="44.04">
        <route edges="-E3 E1"/>
    </vehicle>
    <vehicle id="EW_car.4" type="car" depart="45.57">
        <route edges="-E1 E2"/>
    </vehicle>
    <vehicle id="SN_car.5" type="car" depart="51.58">
        <route edges="-E2 -E0"/>
    </vehicle>
    <vehicle id="WE_car.5" type="car" depart="52.79">
        <route edges="E0 E1"/>
    </vehicle>
    <vehicle id="NS_car.5" type="car" depart="55.05">
        <route edges="-E3 E1"/>
    </vehicle>
    <vehicle id="EW_car.5" type="car" depart="56.96">
        <route edges="-E1 E2"/>
    </vehicle>
    <vehicle id="SN_car.6" type="car" depart="61.89">
        <route edges="-E2 E3"/>
    </vehicle>
    <vehicle id="WE_car.6" type="car" depart="63.34">
        <route edges="E0 E3"/>
    </vehicle>
    <vehicle id="NS_car.6" type="car" depart="66.05">
        <route edges="-E3 E2"/>
    </vehicle>
    <vehicle id="EW_car.6" type="car" depart="68.35">
        <route edges="-E1 E2"/>
    </vehicle>
    <vehicle id="SN_car.7" type="car" depart="72.21">
        <route edges="-E2 E3"/>
    </vehicle>
    <vehicle id="WE_car.7" type="car" depart="73.90">
        <route edges="E0 E1"/>
    </vehicle>
    <vehicle id="NS_car.7" type="car" depart="77.06">
        <route edges="-E3 -E0"/>
    </vehicle>
    <vehicle id="EW_car.7" type="car" depart="79.74">
        <route edges="-E1 E2"/>
    </vehicle>
    <vehicle id="SN_car.8" type="car" depart="82.52">
        <route edges="-E2 E3"/>
    </vehicle>
    <vehicle id="WE_car.8" type="car" depart="84.46">
        <route edges="E0 E1"/>
    </vehicle>
    <vehicle id="NS_car.8" type="car" depart="88.07">
        <route edges="-E3 E2"/>
    </vehicle>
    <vehicle id="EW_car.8" type="car" depart="91.14">
        <route edges="-E1 -E0"/>
    </vehicle>
    <vehicle id="SN_car.9" type="car" depart="92.84">
        <route edges="-E2 E3"/>
    </vehicle>
    <vehicle id="WE_car.9" type="car" depart="95.01">
        <route edges="E0 E1"/>
    </vehicle>
    <vehicle id="NS_car.9" type="car" depart="99.08">
        <route edges="-E3 -E0"/>
    </vehicle>
    <vehicle id="EW_car.9" type="car" depart="102.53">
        <route edges="-E1 -E0"/>
    </vehicle>
    <vehicle id="SN_car.10" type="car" depart="103.15">
        <route edges="-E2 E3"/>
    </vehicle>
    <vehicle id="WE_car.10" type="car" depart="105.57">
        <route edges="E0 E3"/>
    </vehicle>
    <vehicle id="NS_car.10" type="car" depart="110.09">
        <route edges="-E3 -E0"/>
    </vehicle>
    <vehicle id="SN_car.11" type="car" depart="113.47">
        <route edges="-E2 E1"/>
    </vehicle>
    <vehicle id="EW_car.10" type="car" depart="113.92">
        <route edges="-E1 -E0"/>
    </vehicle>
    <vehicle id="WE_car.11" type="car" depart="116.13">
        <route edges="E0 E1"/>
    </vehicle>
    <vehicle id="NS_car.11" type="car" depart="121.10">
        <route edges="-E3 -E0"/>
    </vehicle>
    <vehicle id="SN_car.12" type="car" depart="123.78">
        <route edges="-E2 E3"/>
    </vehicle>
    <vehicle id="EW_car.11" type="car" depart="125.31">
        <route edges="-E1 -E0"/>
    </vehicle>
    <vehicle id="WE_car.12" type="car" depart="126.68">
        <route edges="E0 E1"/>
    </vehicle>
    <vehicle id="NS_car.12" type="car" depart="132.11">
        <route edges="-E3 E2"/>
    </vehicle>
    <vehicle id="SN_car.13" type="car" depart="134.10">
        <route edges="-E2 E3"/>
    </vehicle>
    <vehicle id="EW_car.12" type="car" depart="136.70">
        <route edges="-E1 E2"/>
    </vehicle>
    <vehicle id="WE_car.13" type="car" depart="137.24">
        <route edges="E0 E3"/>
    </vehicle>
    <vehicle id="NS_car.13" type="car" depart="143.12">
        <route edges="-E3 E2"/>
    </vehicle>
    <vehicle id="SN_car.14" type="car" depart="144.41">
        <route edges="-E2 E1"/>
    </vehicle>
    <vehicle id="WE_car.14" type="car" depart="147.80">
        <route edges="E0 E1"/>
    </vehicle>
    <vehicle id="EW_car.13" type="car" depart="148.10">
        <route edges="-E1 E2"/>
    </vehicle>
    <vehicle id="NS_car.14" type="car" depart="154.13">
        <route edges="-E3 -E0"/>
    </vehicle>
    <vehicle id="SN_car.15" type="car" depart="154.73">
        <route edges="-E2 E3"/>
    </vehicle>
    <vehicle id="WE_car.15" type="car" depart="158.36">
        <route edges="E0 E1"/>
    </vehicle>
    <vehicle id="EW_car.14" type="car" depart="159.49">
        <route edges="-E1 E2"/>
    </vehicle>
    <vehicle id="SN_car.16" type="car" depart="165.04">
        <route edges="-E2 E1"/>
    </vehicle>
    <vehicle id="NS_car.15" type="car" depart="165.14">
        <route edges="-E3 -E0"/>
    </vehicle>
    <vehicle id="WE_car.16" type="car" depart="168.91">
        <route edges="E0 E1"/>
    </vehicle>
    <vehicle id="EW_car.15" type="car" depart="170.88">
        <route edges="-E1 E2"/>
    </vehicle>
    <vehicle id="SN_car.17" type="car" depart="175.36">
        <route edges="-E2 E3"/>
    </vehicle>
    <vehicle id="NS_car.16" type="car" depart="176.14">
        <route edges="-E3 -E0"/>
    </vehicle>
    <vehicle id="WE_car.17" type="car" depart="179.47">
        <route edges="E0 E1"/>
    </vehicle>
    <vehicle id="EW_car.16" type="car" depart="182.27">
        <route edges="-E1 E3"/>
    </vehicle>
    <vehicle id="SN_car.18" type="car" depart="185.67">
        <route edges="-E2 E1"/>
    </vehicle>
    <vehicle id="NS_car.17" type="car" depart="187.15">
        <route edges="-E3 E1"/>
    </vehicle>
    <vehicle id="WE_car.18" type="car" depart="190.03">
        <route edges="E0 E1"/>
    </vehicle>
    <vehicle id="EW_car.17" type="car" depart="193.66">
        <route edges="-E1 E2"/>
    </vehicle>
    <vehicle id="SN_car.19" type="car" depart="195.99">
        <route edges="-E2 E1"/>
    </vehicle>
    <vehicle id="NS_car.18" type="car" depart="198.16">
        <route edges="-E3 -E0"/>
    </vehicle>
    <vehicle id="WE_car.19" type="car" depart="200.58">
        <route edges="E0 E1"/>
    </vehicle>
    <vehicle id="EW_car.18" type="car" depart="205.06">
        <route edges="-E1 -E0"/>
    </vehicle>
    <vehicle id="SN_car.20" type="car" depart="206.30">
        <route edges="-E2 E3"/>
    </vehicle>
    <vehicle id="NS_car.19" type="car" depart="209.17">
        <route edges="-E3 E1"/>
    </vehicle>
    <vehicle id="WE_car.20" type="car" depart="211.14">
        <route edges="E0 E1"/>
    </vehicle>
    <vehicle id="EW_car.19" type="car" depart="216.45">
        <route edges="-E1 E2"/>
    </vehicle>
    <vehicle id="SN_car.21" type="car" depart="216.62">
        <route edges="-E2 E3"/>
    </vehicle>
    <vehicle id="NS_car.20" type="car" depart="220.18">
        <route edges="-E3 E1"/>
    </vehicle>
    <vehicle id="WE_car.21" type="car" depart="221.70">
        <route edges="E0 E1"/>
    </vehicle>
    <vehicle id="SN_car.22" type="car" depart="226.93">
        <route edges="-E2 E1"/>
    </vehicle>
    <vehicle id="EW_car.20" type="car" depart="227.84">
        <route edges="-E1 E2"/>
    </vehicle>
    <vehicle id="NS_car.21" type="car" depart="231.19">
        <route edges="-E3 E2"/>
    </vehicle>
    <vehicle id="WE_car.22" type="car" depart="232.25">
        <route edges="E0 E1"/>
    </vehicle>
    <vehicle id="SN_car.23" type="car" depart="237.25">
        <route edges="-E2 E3"/>
    </vehicle>
    <vehicle id="EW_car.21" type="car" depart="239.23">
        <route edges="-E1 E2"/>
    </vehicle>
    <vehicle id="NS_car.22" type="car" depart="242.20">
        <route edges="-E3 E2"/>
    </vehicle>
    <vehicle id="WE_car.23" type="car" depart="242.81">
        <route edges="E0 E1"/>
    </vehicle>
    <vehicle id="SN_car.24" type="car" depart="247.56">
        <route edges="-E2 E1"/>
    </vehicle>
    <vehicle id="EW_car.22" type="car" depart="250.62">
        <route edges="-E1 -E0"/>
    </vehicle>
    <vehicle id="NS_car.23" type="car" depart="253.21">
        <route edges="-E3 E2"/>
    </vehicle>
    <vehicle id="WE_car.24" type="car" depart="253.37">
        <route edges="E0 E1"/>
    </vehicle>
    <vehicle id="SN_car.25" type="car" depart="257.88">
        <route edges="-E2 E3"/>
    </vehicle>
    <vehicle id="EW_car.23" type="car" depart="262.02">
        <route edges="-E1 E2"/>
    </vehicle>
    <vehicle id="WE_car.25" type="car" depart="263.93">
        <route edges="E0 E1"/>
    </vehicle>
    <vehicle id="NS_car.24" type="car" depart="264.22">
        <route edges="-E3 E2"/>
    </vehicle>
    <vehicle id="SN_car.26" type="car" depart="268.19">
        <route edges="-E2 E3"/>
    </vehicle>
    <vehicle id="EW_car.24" type="car" depart="273.41">
        <route edges="-E1 E3"/>
    </vehicle>
    <vehicle id="WE_car.26" type="car" depart="274.48">
        <route edges="E0 E1"/>
    </vehicle>
    <vehicle id="NS_car.25" type="car" depart="275.23">
        <route edges="-E3 E2"/>
    </vehicle>
    <vehicle id="SN_car.27" type="car" depart="278.51">
        <route edges="-E2 E1"/>
    </vehicle>
    <vehicle id="EW_car.25" type="car" depart="284.80">
        <route edges="-E1 E2"/>
    </vehicle>
    <vehicle id="WE_car.27" type="car" depart="285.04">
        <route edges="E0 E1"/>
    </vehicle>
    <vehicle id="NS_car.26" type="car" depart="286.23">
        <route edges="-E3 E1"/>
    </vehicle>
    <vehicle id="SN_car.28" type="car" depart="288.82">
        <route edges="-E2 E1"/>
    </vehicle>
    <vehicle id="WE_car.28" type="car" depart="295.60">
        <route edges="E0 E1"/>
    </vehicle>
    <vehicle id="EW_car.26" type="car" depart="296.19">
        <route edges="-E1 E2"/>
    </vehicle>
    <vehicle id="NS_car.27" type="car" depart="297.24">
        <route edges="-E3 E2"/>
    </vehicle>
    <vehicle id="SN_car.29" type="car" depart="299.14">
        <route edges="-E2 E1"/>
    </vehicle>
    <vehicle id="WE_car.29" type="car" depart="306.15">
        <route edges="E0 E2"/>
    </vehicle>
    <vehicle id="EW_car.27" type="car" depart="307.58">
        <route edges="-E1 -E0"/>
    </vehicle>
    <vehicle id="NS_car.28" type="car" depart="308.25">
        <route edges="-E3 E2"/>
    </vehicle>
    <vehicle id="SN_car.30" type="car" depart="309.45">
        <route edges="-E2 E1"/>
    </vehicle>
    <vehicle id="WE_car.30" type="car" depart="316.71">
        <route edges="E0 E3"/>
    </vehicle>
    <vehicle id="EW_car.28" type="car" depart="318.98">
        <route edges="-E1 E2"/>
    </vehicle>
    <vehicle id="NS_car.29" type="car" depart="319.26">
        <route edges="-E3 E1"/>
    </vehicle>
    <vehicle id="SN_car.31" type="car" depart="319.77">
        <route edges="-E2 -E0"/>
    </vehicle>
    <vehicle id="WE_car.31" type="car" depart="327.27">
        <route edges="E0 E1"/>
    </vehicle>
    <vehicle id="SN_car.32" type="car" depart="330.08">
        <route edges="-E2 E3"/>
    </vehicle>
    <vehicle id="NS_car.30" type="car" depart="330.27">
        <route edges="-E3 E2"/>
    </vehicle>
    <vehicle id="EW_car.29" type="car" depart="330.37">
        <route edges="-E1 E3"/>
    </vehicle>
    <vehicle id="WE_car.32" type="car" depart="337.82">
        <route edges="E0 E1"/>
    </vehicle>
    <vehicle id="SN_car.33" type="car" depart="340.40">
        <route edges="-E2 E3"/>
    </vehicle>
    <vehicle id="NS_car.31" type="car" depart="341.28">
        <route edges="-E3 E1"/>
    </vehicle>
    <vehicle id="EW_car.30" type="car" depart="341.76">
        <route edges="-E1 E2"/>
    </vehicle>
    <vehicle id="WE_car.33" type="car" depart="348.38">
        <route edges="E0 E1"/>
    </vehicle>
    <vehicle id="SN_car.34" type="car" depart="350.71">
        <route edges="-E2 E3"/>
    </vehicle>
    <vehicle id="NS_car.32" type="car" depart="352.29">
        <route edges="-E3 -E0"/>
    </vehicle>
    <vehicle id="EW_car.31" type="car" depart="353.15">
        <route edges="-E1 E2"/>
    </vehicle>
    <vehicle id="WE_car.34" type="car" depart="358.94">
        <route edges="E0 E1"/>
    </vehicle>
    <vehicle id="SN_car.35" type="car" depart="361.03">
        <route edges="-E2 E3"/>
    </vehicle>
    <vehicle id="NS_car.33" type="car" depart="363.30">
        <route edges="-E3 E1"/>
    </vehicle>
    <vehicle id="EW_car.32" type="car" depart="364.54">
        <route edges="-E1 -E0"/>
    </vehicle>
    <vehicle id="WE_car.35" type="car" depart="369.50">
        <route edges="E0 E3"/>
    </vehicle>
    <vehicle id="SN_car.36" type="car" depart="371.34">
        <route edges="-E2 E3"/>
    </vehicle>
    <vehicle id="NS_car.34" type="car" depart="374.31">
        <route edges="-E3 E2"/>
    </vehicle>
    <vehicle id="EW_car.33" type="car" depart="375.94">
        <route edges="-E1 E3"/>
    </vehicle>
    <vehicle id="WE_car.36" type="car" depart="380.05">
        <route edges="E0 E1"/>
    </vehicle>
    <vehicle id="SN_car.37" type="car" depart="381.66">
        <route edges="-E2 -E0"/>
    </vehicle>
    <vehicle id="NS_car.35" type="car" depart="385.32">
        <route edges="-E3 E2"/>
    </vehicle>
    <vehicle id="EW_car.34" type="car" depart="387.33">
        <route edges="-E1 E3"/>
    </vehicle>
    <vehicle id="WE_car.37" type="car" depart="390.61">
        <route edges="E0 E1"/>
    </vehicle>
    <vehicle id="SN_car.38" type="car" depart="391.97">
        <route edges="-E2 E3"/>
    </vehicle>
    <vehicle id="NS_car.36" type="car" depart="396.32">
        <route edges="-E3 -E0"/>
    </vehicle>
    <vehicle id="EW_car.35" type="car" depart="398.72">
        <route edges="-E1 E2"/>
    </vehicle>
    <vehicle id="WE_car.38" type="car" depart="401.17">
        <route edges="E0 E2"/>
    </vehicle>
    <vehicle id="SN_car.39" type="car" depart="402.29">
        <route edges="-E2 E3"/>
    </vehicle>
    <vehicle id="NS_car.37" type="car" depart="407.33">
        <route edges="-E3 E1"/>
    </vehicle>
    <vehicle id="EW_car.36" type="car" depart="410.11">
        <route edges="-E1 -E0"/>
    </vehicle>
    <vehicle id="WE_car.39" type="car" depart="411.72">
        <route edges="E0 E1"/>
    </vehicle>
    <vehicle id="SN_car.40" type="car" depart="412.60">
        <route edges="-E2 E3"/>
    </vehicle>
    <vehicle id="NS_car.38" type="car" depart="418.34">
        <route edges="-E3 -E0"/>
    </vehicle>
    <vehicle id="EW_car.37" type="car" depart="421.50">
        <route edges="-E1 E2"/>
    </vehicle>
    <vehicle id="WE_car.40" type="car" depart="422.28">
        <route edges="E0 E3"/>
    </vehicle>
    <vehicle id="SN_car.41" type="car" depart="422.92">
        <route edges="-E2 E3"/>
    </vehicle>
    <vehicle id="NS_car.39" type="car" depart="429.35">
        <route edges="-E3 -E0"/>
    </vehicle>
    <vehicle id="WE_car.41" type="car" depart="432.84">
        <route edges="E0 E3"/>
    </vehicle>
    <vehicle id="EW_car.38" type="car" depart="432.90">
        <route edges="-E1 E3"/>
    </vehicle>
    <vehicle id="SN_car.42" type="car" depart="433.23">
        <route edges="-E2 E1"/>
    </vehicle>
    <vehicle id="NS_car.40" type="car" depart="440.36">
        <route edges="-E3 E2"/>
    </vehicle>
    <vehicle id="WE_car.42" type="car" depart="443.39">
        <route edges="E0 E1"/>
    </vehicle>
    <vehicle id="SN_car.43" type="car" depart="443.55">
        <route edges="-E2 E3"/>
    </vehicle>
    <vehicle id="EW_car.39" type="car" depart="444.29">
        <route edges="-E1 E3"/>
    </vehicle>
    <vehicle id="NS_car.41" type="car" depart="451.37">
        <route edges="-E3 E1"/>
    </vehicle>
    <vehicle id="SN_car.44" type="car" depart="453.86">
        <route edges="-E2 E3"/>
    </vehicle>
    <vehicle id="WE_car.43" type="car" depart="453.95">
        <route edges="E0 E1"/>
    </vehicle>
    <vehicle id="EW_car.40" type="car" depart="455.68">
        <route edges="-E1 E2"/>
    </vehicle>
    <vehicle id="NS_car.42" type="car" depart="462.38">
        <route edges="-E3 -E0"/>
    </vehicle>
    <vehicle id="SN_car.45" type="car" depart="464.18">
        <route edges="-E2 E3"/>
    </vehicle>
    <vehicle id="WE_car.44" type="car" depart="464.51">
        <route edges="E0 E1"/>
    </vehicle>
    <vehicle id="EW_car.41" type="car" depart="467.07">
        <route edges="-E1 E3"/>
    </vehicle>
    <vehicle id="NS_car.43" type="car" depart="473.39">
        <route edges="-E3 E1"/>
    </vehicle>
    <vehicle id="SN_car.46" type="car" depart="474.49">
        <route edges="-E2 E1"/>
    </vehicle>
    <vehicle id="WE_car.45" type="car" depart="475.07">
        <route edges="E0 E3"/>
    </vehicle>
    <vehicle id="EW_car.42" type="car" depart="478.46">
        <route edges="-E1 -E0"/>
    </vehicle>
    <vehicle id="NS_car.44" type="car" depart="484.40">
        <route edges="-E3 E1"/>
    </vehicle>
    <vehicle id="SN_car.47" type="car" depart="484.81">
        <route edges="-E2 E1"/>
    </vehicle>
    <vehicle id="WE_car.46" type="car" depart="485.62">
        <route edges="E0 E2"/>
    </vehicle>
    <vehicle id="EW_car.43" type="car" depart="489.86">
        <route edges="-E1 -E0"/>
    </vehicle>
    <vehicle id="SN_car.48" type="car" depart="495.12">
        <route edges="-E2 -E0"/>
    </vehicle>
    <vehicle id="NS_car.45" type="car" depart="495.41">
        <route edges="-E3 -E0"/>
    </vehicle>
    <vehicle id="WE_car.47" type="car" depart="496.18">
        <route edges="E0 E1"/>
    </vehicle>
    <vehicle id="EW_car.44" type="car" depart="501.25">
        <route edges="-E1 -E0"/>
    </vehicle>
    <vehicle id="SN_car.49" type="car" depart="505.44">
        <route edges="-E2 E3"/>
    </vehicle>
    <vehicle id="NS_car.46" type="car" depart="506.41">
        <route edges="-E3 E1"/>
    </vehicle>
    <vehicle id="WE_car.48" type="car" depart="506.74">
        <route edges="E0 E1"/>
    </vehicle>
    <vehicle id="EW_car.45" type="car" depart="512.64">
        <route edges="-E1 E3"/>
    </vehicle>
    <vehicle id="SN_car.50" type="car" depart="515.75">
        <route edges="-E2 E3"/>
    </vehicle>
    <vehicle id="WE_car.49" type="car" depart="517.29">
        <route edges="E0 E1"/>
    </vehicle>
    <vehicle id="NS_car.47" type="car" depart="517.42">
        <route edges="-E3 -E0"/>
    </vehicle>
    <vehicle id="EW_car.46" type="car" depart="524.03">
        <route edges="-E1 E3"/>
    </vehicle>
    <vehicle id="SN_car.51" type="car" depart="526.07">
        <route edges="-E2 E1"/>
    </vehicle>
    <vehicle id="WE_car.50" type="car" depart="527.85">
        <route edges="E0 E3"/>
    </vehicle>
    <vehicle id="NS_car.48" type="car" depart="528.43">
        <route edges="-E3 E1"/>
    </vehicle>
    <vehicle id="EW_car.47" type="car" depart="535.42">
        <route edges="-E1 E3"/>
    </vehicle>
    <vehicle id="SN_car.52" type="car" depart="536.38">
        <route edges="-E2 E3"/>
    </vehicle>
    <vehicle id="WE_car.51" type="car" depart="538.41">
        <route edges="E0 E1"/>
    </vehicle>
    <vehicle id="NS_car.49" type="car" depart="539.44">
        <route edges="-E3 E1"/>
    </vehicle>
    <vehicle id="SN_car.53" type="car" depart="546.70">
        <route edges="-E2 -E0"/>
    </vehicle>
    <vehicle id="EW_car.48" type="car" depart="546.82">
        <route edges="-E1 E3"/>
    </vehicle>
    <vehicle id="WE_car.52" type="car" depart="548.96">
        <route edges="E0 E2"/>
    </vehicle>
    <vehicle id="NS_car.50" type="car" depart="550.45">
        <route edges="-E3 E1"/>
    </vehicle>
    <vehicle id="SN_car.54" type="car" depart="557.01">
        <route edges="-E2 E1"/>
    </vehicle>
    <vehicle id="EW_car.49" type="car" depart="558.21">
        <route edges="-E1 E2"/>
    </vehicle>
    <vehicle id="WE_car.53" type="car" depart="559.52">
        <route edges="E0 E1"/>
    </vehicle>
    <vehicle id="NS_car.51" type="car" depart="561.46">
        <route edges="-E3 E1"/>
    </vehicle>
    <vehicle id="SN_car.55" type="car" depart="567.33">
        <route edges="-E2 -E0"/>
    </vehicle>
    <vehicle id="EW_car.50" type="car" depart="569.60">
        <route edges="-E1 E2"/>
    </vehicle>
    <vehicle id="WE_car.54" type="car" depart="570.08">
        <route edges="E0 E2"/>
    </vehicle>
    <vehicle id="NS_car.52" type="car" depart="572.47">
        <route edges="-E3 E2"/>
    </vehicle>
    <vehicle id="SN_car.56" type="car" depart="577.64">
        <route edges="-E2 E3"/>
    </vehicle>
    <vehicle id="WE_car.55" type="car" depart="580.64">
        <route edges="E0 E1"/>
    </vehicle>
    <vehicle id="EW_car.51" type="car" depart="580.99">
        <route edges="-E1 E3"/>
    </vehicle>
    <vehicle id="NS_car.53" type="car" depart="583.48">
        <route edges="-E3 E1"/>
    </vehicle>
    <vehicle id="SN_car.57" type="car" depart="587.96">
        <route edges="-E2 E1"/>
    </vehicle>
    <vehicle id="WE_car.56" type="car" depart="591.19">
        <route edges="E0 E1"/>
    </vehicle>
    <vehicle id="EW_car.52" type="car" depart="592.38">
        <route edges="-E1 -E0"/>
    </vehicle>
    <vehicle id="NS_car.54" type="car" depart="594.49">
        <route edges="-E3 E1"/>
    </vehicle>
    <vehicle id="SN_car.58" type="car" depart="598.27">
        <route edges="-E2 E1"/>
    </vehicle>
    <vehicle id="WE_car.57" type="car" depart="601.75">
        <route edges="E0 E1"/>
    </vehicle>
    <vehicle id="EW_car.53" type="car" depart="603.78">
        <route edges="-E1 E3"/>
    </vehicle>
    <vehicle id="NS_car.55" type="car" depart="605.50">
        <route edges="-E3 E2"/>
    </vehicle>
    <vehicle id="SN_car.59" type="car" depart="608.59">
        <route edges="-E2 E1"/>
    </vehicle>
    <vehicle id="WE_car.58" type="car" depart="612.31">
        <route edges="E0 E3"/>
    </vehicle>
    <vehicle id="EW_car.54" type="car" depart="615.17">
        <route edges="-E1 E2"/>
    </vehicle>
    <vehicle id="NS_car.56" type="car" depart="616.50">
        <route edges="-E3 -E0"/>
    </vehicle>
    <vehicle id="SN_car.60" type="car" depart="618.90">
        <route edges="-E2 E1"/>
    </vehicle>
    <vehicle id="WE_car.59" type="car" depart="622.86">
        <route edges="E0 E1"/>
    </vehicle>
    <vehicle id="EW_car.55" type="car" depart="626.56">
        <route edges="-E1 E2"/>
    </vehicle>
    <vehicle id="NS_car.57" type="car" depart="627.51">
        <route edges="-E3 E1"/>
    </vehicle>
    <vehicle id="SN_car.61" type="car" depart="629.22">
        <route edges="-E2 E3"/>
    </vehicle>
    <vehicle id="WE_car.60" type="car" depart="633.42">
        <route edges="E0 E3"/>
    </vehicle>
    <vehicle id="EW_car.56" type="car" depart="637.95">
        <route edges="-E1 E2"/>
    </vehicle>
    <vehicle id="NS_car.58" type="car" depart="638.52">
        <route edges="-E3 E2"/>
    </vehicle>
    <vehicle id="SN_car.62" type="car" depart="639.53">
        <route edges="-E2 E1"/>
    </vehicle>
    <vehicle id="WE_car.61" type="car" depart="643.98">
        <route edges="E0 E1"/>
    </vehicle>
    <vehicle id="EW_car.57" type="car" depart="649.34">
        <route edges="-E1 E2"/>
    </vehicle>
    <vehicle id="NS_car.59" type="car" depart="649.53">
        <route edges="-E3 E1"/>
    </vehicle>
    <vehicle id="SN_car.63" type="car" depart="649.85">
        <route edges="-E2 -E0"/>
    </vehicle>
    <vehicle id="WE_car.62" type="car" depart="654.53">
        <route edges="E0 E1"/>
    </vehicle>
    <vehicle id="SN_car.64" type="car" depart="660.16">
        <route edges="-E2 -E0"/>
    </vehicle>
    <vehicle id="NS_car.60" type="car" depart="660.54">
        <route edges="-E3 E2"/>
    </vehicle>
    <vehicle id="EW_car.58" type="car" depart="660.74">
        <route edges="-E1 E2"/>
    </vehicle>
    <vehicle id="WE_car.63" type="car" depart="665.09">
        <route edges="E0 E1"/>
    </vehicle>
    <vehicle id="SN_car.65" type="car" depart="670.48">
        <route edges="-E2 E1"/>
    </vehicle>
    <vehicle id="NS_car.61" type="car" depart="671.55">
        <route edges="-E3 -E0"/>
    </vehicle>
    <vehicle id="EW_car.59" type="car" depart="672.13">
        <route edges="-E1 E3"/>
    </vehicle>
    <vehicle id="WE_car.64" type="car" depart="675.65">
        <route edges="E0 E1"/>
    </vehicle>
    <vehicle id="SN_car.66" type="car" depart="680.79">
        <route edges="-E2 E3"/>
    </vehicle>
    <vehicle id="NS_car.62" type="car" depart="682.56">
        <route edges="-E3 E1"/>
    </vehicle>
    <vehicle id="EW_car.60" type="car" depart="683.52">
        <route edges="-E1 E2"/>
    </vehicle>
    <vehicle id="WE_car.65" type="car" depart="686.21">
        <route edges="E0 E2"/>
    </vehicle>
    <vehicle id="SN_car.67" type="car" depart="691.11">
        <route edges="-E2 E3"/>
    </vehicle>
    <vehicle id="NS_car.63" type="car" depart="693.57">
        <route edges="-E3 E1"/>
    </vehicle>
    <vehicle id="EW_car.61" type="car" depart="694.91">
        <route edges="-E1 E2"/>
    </vehicle>
    <vehicle id="WE_car.66" type="car" depart="696.76">
        <route edges="E0 E1"/>
    </vehicle>
    <vehicle id="SN_car.68" type="car" depart="701.42">
        <route edges="-E2 E3"/>
    </vehicle>
    <vehicle id="NS_car.64" type="car" depart="704.58">
        <route edges="-E3 -E0"/>
    </vehicle>
    <vehicle id="EW_car.62" type="car" depart="706.30">
        <route edges="-E1 -E0"/>
    </vehicle>
    <vehicle id="WE_car.67" type="car" depart="707.32">
        <route edges="E0 E1"/>
    </vehicle>
    <vehicle id="SN_car.69" type="car" depart="711.74">
        <route edges="-E2 E1"/>
    </vehicle>
    <vehicle id="NS_car.65" type="car" depart="715.59">
        <route edges="-E3 E1"/>
    </vehicle>
    <vehicle id="EW_car.63" type="car" depart="717.70">
        <route edges="-E1 E2"/>
    </vehicle>
    <vehicle id="WE_car.68" type="car" depart="717.88">
        <route edges="E0 E3"/>
    </vehicle>
    <vehicle id="SN_car.70" type="car" depart="722.05">
        <route edges="-E2 E3"/>
    </vehicle>
    <vehicle id="NS_car.66" type="car" depart="726.59">
        <route edges="-E3 E1"/>
    </vehicle>
    <vehicle id="WE_car.69" type="car" depart="728.43">
        <route edges="E0 E1"/>
    </vehicle>
    <vehicle id="EW_car.64" type="car" depart="729.09">
        <route edges="-E1 E3"/>
    </vehicle>
    <vehicle id="SN_car.71" type="car" depart="732.37">
        <route edges="-E2 E3"/>
    </vehicle>
    <vehicle id="NS_car.67" type="car" depart="737.60">
        <route edges="-E3 -E0"/>
    </vehicle>
    <vehicle id="WE_car.70" type="car" depart="738.99">
        <route edges="E0 E1"/>
    </vehicle>
    <vehicle id="EW_car.65" type="car" depart="740.48">
        <route edges="-E1 E3"/>
    </vehicle>
    <vehicle id="SN_car.72" type="car" depart="742.68">
        <route edges="-E2 E3"/>
    </vehicle>
    <vehicle id="NS_car.68" type="car" depart="748.61">
        <route edges="-E3 E2"/>
    </vehicle>
    <vehicle id="WE_car.71" type="car" depart="749.55">
        <route edges="E0 E2"/>
    </vehicle>
    <vehicle id="EW_car.66" type="car" depart="751.87">
        <route edges="-E1 -E0"/>
    </vehicle>
    <vehicle id="SN_car.73" type="car" depart="753.00">
        <route edges="-E2 E3"/>
    </vehicle>
    <vehicle id="NS_car.69" type="car" depart="759.62">
        <route edges="-E3 E1"/>
    </vehicle>
    <vehicle id="WE_car.72" type="car" depart="760.10">
        <route edges="E0 E1"/>
    </vehicle>