<?xml version="1.0" encoding="UTF-8"?>

<!-- generated on 2026-05-23T12:11:53.607938+08:00 by Eclipse SUMO jtrrouter 1.26.0
<jtrrouterConfiguration xmlns:xsi="http://www.w3.org/2001/XMLSchema-instance" xsi:noNamespaceSchemaLocation="http://sumo.dlr.de/xsd/jtrrouterConfiguration.xsd">

    <input>
        <net-file value="demo_5.net.xml"/>
        <route-files value="demo_5.flow.xml"/>
        <turn-ratio-files value="demo_5.turn.xml"/>
    </input>

    <output>
        <output-file value="demo_5.rou.xml"/>
    </output>

    <time>
        <begin value="0"/>
        <end value="3600"/>
    </time>

</jtrrouterConfiguration>
-->

<routes xmlns:xsi="http://www.w3.org/2001/XMLSchema-instance" xsi:noNamespaceSchemaLocation="http://sumo.dlr.de/xsd/routes_file.xsd">
    <vType id="car" maxSpeed="37.00" vClass="passenger"/>
    <vehicle id="EW_car.0" type="car" depart="0.00">
        <route edges="-E1 E2"/>
    </vehicle>
    <vehicle id="SN_car.0" type="car" depart="0.00">
        <route edges="-E2 E1"/>
    </vehicle>
    <vehicle id="WE_car.0" type="car" depart="0.00">
        <route edges="E0 E1"/>
    </vehicle>
    <vehicle id="WE_car.1" type="car" depart="10.43">
        <route edges="E0 E1"/>
    </vehicle>
    <vehicle id="SN_car.1" type="car" depart="10.88">
        <route edges="-E2 E1"/>
    </vehicle>
    <vehicle id="EW_car.1" type="car" depart="11.32">
        <route edges="-E1 -E0"/>
    </vehicle>
    <vehicle id="WE_car.2" type="car" depart="20.87">
        <route edges="E0 E2"/>
    </vehicle>
    <vehicle id="SN_car.2" type="car" depart="21.75">
        <route edges="-E2 -E0"/>
    </vehicle>
    <vehicle id="EW_car.2" type="car" depart="22.64">
        <route edges="-E1 E2"/>
    </vehicle>
    <vehicle id="WE_car.3" type="car" depart="31.30">
        <route edges="E0 E2"/>
    </vehicle>
    <vehicle id="SN_car.3" type="car" depart="32.63">
        <route edges="-E2 -E0"/>
    </vehicle>
    <vehicle id="EW_car.3" type="car" depart="33.96">
        <route edges="-E1 E2"/>
    </vehicle>
    <vehicle id="WE_car.4" type="car" depart="41.74">
        <route edges="E0 E1"/>
    </vehicle>
    <vehicle id="SN_car.4" type="car" depart="43.50">
        <route edges="-E2 E1"/>
    </vehicle>
    <vehicle id="EW_car.4" type="car" depart="45.28">
        <route edges="-E1 E2"/>
    </vehicle>
    <vehicle id="WE_car.5" type="car" depart="52.17">
        <route edges="E0 E1"/>
    </vehicle>
    <vehicle id="SN_car.5" type="car" depart="54.38">
        <route edges="-E2 -E0"/>
    </vehicle>
    <vehicle id="EW_car.5" type="car" depart="56.60">
        <route edges="-E1 E2"/>
    </vehicle>
    <vehicle id="WE_car.6" type="car" depart="62.60">
        <route edges="E0 E1"/>
    </vehicle>
    <vehicle id="SN_car.6" type="car" depart="65.26">
        <route edges="-E2 E1"/>
    </vehicle>
    <vehicle id="EW_car.6" type="car" depart="67.92">
        <route edges="-E1 -E0"/>
    </vehicle>
    <vehicle id="WE_car.7" type="car" depart="73.04">
        <route edges="E0 E1"/>
    </vehicle>
    <vehicle id="SN_car.7" type="car" depart="76.13">
        <route edges="-E2 -E0"/>
    </vehicle>
    <vehicle id="EW_car.7" type="car" depart="79.24">
        <route edges="-E1 E2"/>
    </vehicle>
    <vehicle id="WE_car.8" type="car" depart="83.47">
        <route edges="E0 E2"/>
    </vehicle>
    <vehicle id="SN_car.8" type="car" depart="87.01">
        <route edges="-E2 E1"/>
    </vehicle>
    <vehicle id="EW_car.8" type="car" depart="90.56">
        <route edges="-E1 E2"/>
    </vehicle>
    <vehicle id="WE_car.9" type="car" depart="93.91">
        <route edges="E0 E1"/>
    </vehicle>
    <vehicle id="SN_car.9" type="car" depart="97.88">
        <route edges="-E2 E1"/>
    </vehicle>
    <vehicle id="EW_car.9" type="car" depart="101.88">
        <route edges="-E1 -E0"/>
    </vehicle>
    <vehicle id="WE_car.10" type="car" depart="104.34">
        <route edges="E0 E1"/>
    </vehicle>
    <vehicle id="SN_car.10" type="car" depart="108.76">
        <route edges="-E2 -E0"/>
    </vehicle>
    <vehicle id="EW_car.10" type="car" depart="113.20">
        <route edges="-E1 E2"/>
    </vehicle>
    <vehicle id="WE_car.11" type="car" depart="114.77">
        <route edges="E0 E1"/>
    </vehicle>
    <vehicle id="SN_car.11" type="car" depart="119.64">
        <route edges="-E2 E1"/>
    </vehicle>
    <vehicle id="EW_car.11" type="car" depart="124.52">
        <route edges="-E1 -E0"/>
    </vehicle>
    <vehicle id="WE_car.12" type="car" depart="125.21">
        <route edges="E0 E1"/>
    </vehicle>
    <vehicle id="SN_car.12" type="car" depart="130.51">
        <route edges="-E2 -E0"/>
    </vehicle>
    <vehicle id="WE_car.13" type="car" depart="135.64">
        <route edges="E0 E1"/>
    </vehicle>
    <vehicle id="EW_car.12" type="car" depart="135.84">
        <route edges="-E1 -E0"/>
    </vehicle>
    <vehicle id="SN_car.13" type="car" depart="141.39">
        <route edges="-E2 E1"/>
    </vehicle>
    <vehicle id="WE_car.14" type="car" depart="146.08">
        <route edges="E0 E2"/>
    </vehicle>
    <vehicle id="EW_car.13" type="car" depart="147.16">
        <route edges="-E1 -E0"/>
    </vehicle>
    <vehicle id="SN_car.14" type="car" depart="152.26">
        <route edges="-E2 -E0"/>
    </vehicle>
    <vehicle id="WE_car.15" type="car" depart="156.51">
        <route edges="E0 E1"/>
    </vehicle>
    <vehicle id="EW_car.14" type="car" depart="158.48">
        <route edges="-E1 E2"/>
    </vehicle>
    <vehicle id="SN_car.15" type="car" depart="163.14">
        <route edges="-E2 -E0"/>
    </vehicle>
    <vehicle id="WE_car.16" type="car" depart="166.94">
        <route edges="E0 E2"/>
    </vehicle>
    <vehicle id="EW_car.15" type="car" depart="169.80">
        <route edges="-E1 -E0"/>
    </vehicle>
    <vehicle id="SN_car.16" type="car" depart="174.02">
        <route edges="-E2 E1"/>
    </vehicle>
    <vehicle id="WE_car.17" type="car" depart="177.38">
        <route edges="E0 E2"/>
    </vehicle>
    <vehicle id="EW_car.16" type="car" depart="181.12">
        <route edges="-E1 E2"/>
    </vehicle>
    <vehicle id="SN_car.17" type="car" depart="184.89">
        <route edges="-E2 E1"/>
    </vehicle>
    <vehicle id="WE_car.18" type="car" depart="187.81">
        <route edges="E0 E2"/>
    </vehicle>
    <vehicle id="EW_car.17" type="car" depart="192.44">
        <route edges="-E1 E2"/>
    </vehicle>
    <vehicle id="SN_car.18" type="car" depart="195.77">
        <route edges="-E2 -E0"/>
    </vehicle>
    <vehicle id="WE_car.19" type="car" depart="198.25">
        <route edges="E0 E1"/>
    </vehicle>
    <vehicle id="EW_car.18" type="car" depart="203.76">
        <route edges="-E1 E2"/>
    </vehicle>
    <vehicle id="SN_car.19" type="car" depart="206.64">
        <route edges="-E2 -E0"/>
    </vehicle>
    <vehicle id="WE_car.20" type="car" depart="208.68">
        <route edges="E0 E2"/>
    </vehicle>
    <vehicle id="EW_car.19" type="car" depart="215.08">
        <route edges="-E1 -E0"/>
    </vehicle>
    <vehicle id="SN_car.20" type="car" depart="217.52">
        <route edges="-E2 E1"/>
    </vehicle>
    <vehicle id="WE_car.21" type="car" depart="219.11">
        <route edges="E0 E1"/>
    </vehicle>
    <vehicle id="EW_car.20" type="car" depart="226.40">
        <route edges="-E1 -E0"/>
    </vehicle>
    <vehicle id="SN_car.21" type="car" depart="228.40">
        <route edges="-E2 -E0"/>
    </vehicle>
    <vehicle id="WE_car.22" type="car" depart="229.55">
        <route edges="E0 E1"/>
    </vehicle>
    <vehicle id="EW_car.21" type="car" depart="237.72">
        <route edges="-E1 E2"/>
    </vehicle>
    <vehicle id="SN_car.22" type="car" depart="239.27">
        <route edges="-E2 -E0"/>
    </vehicle>
    <vehicle id="WE_car.23" type="car" depart="239.98">
        <route edges="E0 E1"/>
    </vehicle>
    <vehicle id="EW_car.22" type="car" depart="249.04">
        <route edges="-E1 E2"/>
    </vehicle>
    <vehicle id="SN_car.23" type="car" depart="250.15">
        <route edges="-E2 -E0"/>
    </vehicle>
    <vehicle id="WE_car.24" type="car" depart="250.42">
        <route edges="E0 E1"/>
    </vehicle>
    <vehicle id="EW_car.23" type="car" depart="260.36">
        <route edges="-E1 -E0"/>
    </vehicle>
    <vehicle id="WE_car.25" type="car" depart="260.85">
        <route edges="E0 E1"/>
    </vehicle>
    <vehicle id="SN_car.24" type="car" depart="261.02">
        <route edges="-E2 -E0"/>
    </vehicle>
    <vehicle id="WE_car.26" type="car" depart="271.28">
        <route edges="E0 E1"/>
    </vehicle>
    <vehicle id="EW_car.24" type="car" depart="271.68">
        <route edges="-E1 -E0"/>
    </vehicle>
    <vehicle id="SN_car.25" type="car" depart="271.90">
        <route edges="-E2 -E0"/>
    </vehicle>
    <vehicle id="WE_car.27" type="car" depart="281.72">
        <route edges="E0 E2"/>
    </vehicle>
    <vehicle id="SN_car.26" type="car" depart="282.78">
        <route edges="-E2 -E0"/>
    </vehicle>
    <vehicle id="EW_car.25" type="car" depart="283.00">
        <route edges="-E1 -E0"/>
    </vehicle>
    <vehicle id="WE_car.28" type="car" depart="292.15">
        <route edges="E0 E1"/>
    </vehicle>
    <vehicle id="SN_car.27" type="car" depart="293.65">
        <route edges="-E2 E1"/>
    </vehicle>
    <vehicle id="EW_car.26" type="car" depart="294.32">
        <route edges="-E1 -E0"/>
    </vehicle>
    <vehicle id="WE_car.29" type="car" depart="302.59">
        <route edges="E0 E1"/>
    </vehicle>
    <vehicle id="SN_car.28" type="car" depart="304.53">
        <route edges="-E2 -E0"/>
    </vehicle>
    <vehicle id="EW_car.27" type="car" depart="305.64">
        <route edges="-E1 E2"/>
    </vehicle>
    <vehicle id="WE_car.30" type="car" depart="313.02">
        <route edges="E0 E2"/>
    </vehicle>
    <vehicle id="SN_car.29" type="car" depart="315.40">
        <route edges="-E2 E1"/>
    </vehicle>
    <vehicle id="EW_car.28" type="car" depart="316.96">
        <route edges="-E1 -E0"/>
    </vehicle>
    <vehicle id="WE_car.31" type="car" depart="323.45">
        <route edges="E0 E1"/>
    </vehicle>
    <vehicle id="SN_car.30" type="car" depart="326.28">
        <route edges="-E2 E1"/>
    </vehicle>
    <vehicle id="EW_car.29" type="car" depart="328.28">
        <route edges="-E1 -E0"/>
    </vehicle>
    <vehicle id="WE_car.32" type="car" depart="333.89">
        <route edges="E0 E1"/>
    </vehicle>
    <vehicle id="SN_car.31" type="car" depart="337.16">
        <route edges="-E2 -E0"/>
    </vehicle>
    <vehicle id="EW_car.30" type="car" depart="339.60">
        <route edges="-E1 E2"/>
    </vehicle>
    <vehicle id="WE_car.33" type="car" depart="344.32">
        <route edges="E0 E1"/>
    </vehicle>
    <vehicle id="SN_car.32" type="car" depart="348.03">
        <route edges="-E2 E1"/>
    </vehicle>
    <vehicle id="EW_car.31" type="car" depart="350.92">
        <route edges="-E1 -E0"/>
    </vehicle>
    <vehicle id="WE_car.34" type="car" depart="354.76">
        <route edges="E0 E1"/>
    </vehicle>
    <vehicle id="SN_car.33" type="car" depart="358.91">
        <route edges="-E2 E1"/>
    </vehicle>
    <vehicle id="EW_car.32" type="car" depart="362.24">
        <route edges="-E1 -E0"/>
    </vehicle>
    <vehicle id="WE_car.35" type="car" depart="365.19">
        <route edges="E0 E2"/>
    </vehicle>
    <vehicle id="SN_car.34" type="car" depart="369.78">
        <route edges="-E2 E1"/>
    </vehicle>
    <vehicle id="EW_car.33" type="car" depart="373.56">
        <route edges="-E1 E2"/>
    </vehicle>
    <vehicle id="WE_car.36" type="car" depart="375.62">
        <route edges="E0 E1"/>
    </vehicle>
    <vehicle id="SN_car.35" type="car" depart="380.66">
        <route edges="-E2 E1"/>
    </vehicle>
    <vehicle id="EW_car.34" type="car" depart="384.88">
        <route edges="-E1 -E0"/>
    </vehicle>
    <vehicle id="WE_car.37" type="car" depart="386.06">
        <route edges="E0 E1"/>
    </vehicle>
    <vehicle id="SN_car.36" type="car" depart="391.54">
        <route edges="-E2 -E0"/>
    </vehicle>
    <vehicle id="EW_car.35" type="car" depart="396.20">
        <route edges="-E1 -E0"/>
    </vehicle>
    <vehicle id="WE_car.38" type="car" depart="396.49">
        <route edges="E0 E1"/>
    </vehicle>
    <vehicle id="SN_car.37" type="car" depart="402.41">
        <route edges="-E2 E1"/>
    </vehicle>
    <vehicle id="WE_car.39" type="car" depart="406.93">
        <route edges="E0 E1"/>
    </vehicle>
    <vehicle id="EW_car.36" type="car" depart="407.52">
        <route edges="-E1 E2"/>
    </vehicle>
    <vehicle id="SN_car.38" type="car" depart="413.29">
        <route edges="-E2 -E0"/>
    </vehicle>
    <vehicle id="WE_car.40" type="car" depart="417.36">
        <route edges="E0 E2"/>
    </vehicle>
    <vehicle id="EW_car.37" type="car" depart="418.84">
        <route edges="-E1 -E0"/>
    </vehicle>
    <vehicle id="SN_car.39" type="car" depart="424.16">
        <route edges="-E2 E1"/>
    </vehicle>
    <vehicle id="WE_car.41" type="car" depart="427.79">
        <route edges="E0 E1"/>
    </vehicle>
    <vehicle id="EW_car.38" type="car" depart="430.16">
        <route edges="-E1 -E0"/>
    </vehicle>
    <vehicle id="SN_car.40" type="car" depart="435.04">
        <route edges="-E2 -E0"/>
    </vehicle>
    <vehicle id="WE_car.42" type="car" depart="438.23">
        <route edges="E0 E1"/>
    </vehicle>
    <vehicle id="EW_car.39" type="car" depart="441.48">
        <route edges="-E1 E2"/>
    </vehicle>
    <vehicle id="SN_car.41" type="car" depart="445.92">
        <route edges="-E2 E1"/>
    </vehicle>
    <vehicle id="WE_car.43" type="car" depart="448.66">
        <route edges="E0 E2"/>
    </vehicle>
    <vehicle id="EW_car.40" type="car" depart="452.80">
        <route edges="-E1 -E0"/>
    </vehicle>
    <vehicle id="SN_car.42" type="car" depart="456.79">
        <route edges="-E2 E1"/>
    </vehicle>
    <vehicle id="WE_car.44" type="car" depart="459.10">
        <route edges="E0 E1"/>
    </vehicle>
    <vehicle id="EW_car.41" type="car" depart="464.12">
        <route edges="-E1 E2"/>
    </vehicle>
    <vehicle id="SN_car.43" type="car" depart="467.67">
        <route edges="-E2 E1"/>
    </vehicle>
    <vehicle id="WE_car.45" type="car" depart="469.53">
        <route edges="E0 E1"/>
    </vehicle>
    <vehicle id="EW_car.42" type="car" depart="475.44">
        <route edges="-E1 -E0"/>
    </vehicle>
    <vehicle id="SN_car.44" type="car" depart="478.54">
        <route edges="-E2 -E0"/>
    </vehicle>
    <vehicle id="WE_car.46" type="car" depart="479.96">
        <route edges="E0 E1"/>
    </vehicle>
    <vehicle id="EW_car.43" type="car" depart="486.76">
        <route edges="-E1 E2"/>
    </vehicle>
    <vehicle id="SN_car.45" type="car" depart="489.42">
        <route edges="-E2 E1"/>
    </vehicle>
    <vehicle id="WE_car.47" type="car" depart="490.40">
        <route edges="E0 E1"/>
    </vehicle>
    <vehicle id="EW_car.44" type="car" depart="498.08">
        <route edges="-E1 E2"/>
    </vehicle>
    <vehicle id="SN_car.46" type="car" depart="500.30">
        <route edges="-E2 E1"/>
    </vehicle>
    <vehicle id="WE_car.48" type="car" depart="500.83">
        <route edges="E0 E2"/>
    </vehicle>
    <vehicle id="EW_car.45" type="car" depart="509.40">
        <route edges="-E1 E2"/>
    </vehicle>
    <vehicle id="SN_car.47" type="car" depart="511.17">
        <route edges="-E2 E1"/>
    </vehicle>
    <vehicle id="WE_car.49" type="car" depart="511.27">
        <route edges="E0 E1"/>
    </vehicle>
    <vehicle id="EW_car.46" type="car" depart="520.72">
        <route edges="-E1 E2"/>
    </vehicle>
    <vehicle id="WE_car.50" type="car" depart="521.70">
        <route edges="E0 E2"/>
    </vehicle>
    <vehicle id="SN_car.48" type="car" depart="522.05">
        <route edges="-E2 E1"/>
    </vehicle>
    <vehicle id="EW_car.47" type="car" depart="532.04">
        <route edges="-E1 E2"/>
    </vehicle>
    <vehicle id="WE_car.51" type="car" depart="532.13">
        <route edges="E0 E1"/>
    </vehicle>
    <vehicle id="SN_car.49" type="car" depart="532.92">
        <route edges="-E2 -E0"/>
    </vehicle>
    <vehicle id="WE_car.52" type="car" depart="542.57">
        <route edges="E0 E2"/>
    </vehicle>
    <vehicle id="EW_car.48" type="car" depart="543.36">
        <route edges="-E1 -E0"/>
    </vehicle>
    <vehicle id="SN_car.50" type="car" depart="543.80">
        <route edges="-E2 -E0"/>
    </vehicle>
    <vehicle id="WE_car.53" type="car" depart="553.00">
        <route edges="E0 E1"/>
    </vehicle>
    <vehicle id="SN_car.51" type="car" depart="554.68">
        <route edges="-E2 E1"/>
    </vehicle>
    <vehicle id="EW_car.49" type="car" depart="554.68">
        <route edges="-E1 E2"/>
    </vehicle>
    <vehicle id="WE_car.54" type="car" depart="563.44">
        <route edges="E0 E1"/>
    </vehicle>
    <vehicle id="SN_car.52" type="car" depart="565.55">
        <route edges="-E2 E1"/>
    </vehicle>
    <vehicle id="EW_car.50" type="car" depart="566.00">
        <route edges="-E1 E2"/>
    </vehicle>
    <vehicle id="WE_car.55" type="car" depart="573.87">
        <route edges="E0 E1"/>
    </vehicle>
    <vehicle id="SN_car.53" type="car" depart="576.43">
        <route edges="-E2 -E0"/>
    </vehicle>
    <vehicle id="EW_car.51" type="car" depart="577.32">
        <route edges="-E1 E2"/>
    </vehicle>
    <vehicle id="WE_car.56" type="car" depart="584.30">
        <route edges="E0 E2"/>
    </vehicle>
    <vehicle id="SN_car.54" type="car" depart="587.30">
        <route edges="-E2 -E0"/>
    </vehicle>
    <vehicle id="EW_car.52" type="car" depart="588.64">
        <route edges="-E1 E2"/>
    </vehicle>
    <vehicle id="WE_car.57" type="car" depart="594.74">
        <route edges="E0 E1"/>
    </vehicle>
    <vehicle id="SN_car.55" type="car" depart="598.18">
        <route edges="-E2 E1"/>
    </vehicle>
    <vehicle id="EW_car.53" type="car" depart="599.96">
        <route edges="-E1 E2"/>
    </vehicle>
    <vehicle id="WE_car.58" type="car" depart="605.17">
        <route edges="E0 E1"/>
    </vehicle>
    <vehicle id="SN_car.56" type="car" depart="609.06">
        <route edges="-E2 E1"/>
    </vehicle>
    <vehicle id="EW_car.54" type="car" depart="611.28">
        <route edges="-E1 -E0"/>
    </vehicle>
    <vehicle id="WE_car.59" type="car" depart="615.61">
        <route edges="E0 E1"/>
    </vehicle>
    <vehicle id="SN_car.57" type="car" depart="619.93">
        <route edges="-E2 -E0"/>
    </vehicle>
    <vehicle id="EW_car.55" type="car" depart="622.60">
        <route edges="-E1 -E0"/>
    </vehicle>
    <vehicle id="WE_car.60" type="car" depart="626.04">
        <route edges="E0 E1"/>
    </vehicle>
    <vehicle id="SN_car.58" type="car" depart="630.81">
        <route edges="-E2 E1"/>
    </vehicle>
    <vehicle id="EW_car.56" type="car" depart="633.92">
        <route edges="-E1 -E0"/>
    </vehicle>
    <vehicle id="WE_car.61" type="car" depart="636.47">
        <route edges="E0 E1"/>
    </vehicle>
    <vehicle id="SN_car.59" type="car" depart="641.68">
        <route edges="-E2 E1"/>
    </vehicle>
    <vehicle id="EW_car.57" type="car" depart="645.24">
        <route edges="-E1 -E0"/>
    </vehicle>
    <vehicle id="WE_car.62" type="car" depart="646.91">
        <route edges="E0 E1"/>
    </vehicle>
    <vehicle id="SN_car.60" type="car" depart="652.56">
        <route edges="-E2 -E0"/>
    </vehicle>
    <vehicle id="EW_car.58" type="car" depart="656.56">
        <route edges="-E1 E2"/>
    </vehicle>
    <vehicle id="WE_car.63" type="car" depart="657.34">
        <route edges="E0 E1"/>
    </vehicle>
    <vehicle id="SN_car.61" type="car" depart="663.44">
        <route edges="-E2 -E0"/>
    </vehicle>
    <vehicle id="WE_car.64" type="car" depart="667.78">
        <route edges="E0 E1"/>
    </vehicle>
    <vehicle id="EW_car.59" type="car" depart="667.88">
        <route edges="-E1 -E0"/>
    </vehicle>
    <vehicle id="SN_car.62" type="car" depart="674.31">
        <route edges="-E2 -E0"/>
    </vehicle>
    <vehicle id="WE_car.65" type="car" depart="678.21">
        <route edges="E0 E2"/>
    </vehicle>
    <vehicle id="EW_car.60" type="car" depart="679.20">
        <route edges="-E1 -E0"/>
    </vehicle>
    <vehicle id="SN_car.63" type="car" depart="685.19">
        <route edges="-E2 -E0"/>
    </vehicle>
    <vehicle id="WE_car.66" type="car" depart="688.64">
        <route edges="E0 E2"/>
    </vehicle>
    <vehicle id="EW_car.61" type="car" depart="690.52">
        <route edges="-E1 -E0"/>
    </vehicle>
    <vehicle id="SN_car.64" type="car" depart="696.06">
        <route edges="-E2 -E0"/>
    </vehicle>
    <vehicle id="WE_car.67" type="car" depart="699.08">
        <route edges="E0 E1"/>
    </vehicle>
    <vehicle id="EW_car.62" type="car" depart="701.84">
        <route edges="-E1 E2"/>
    </vehicle>
    <vehicle id="SN_car.65" type="car" depart="706.94">
        <route edges="-E2 -E0"/>
    </vehicle>
    <vehicle id="WE_car.68" type="car" depart="709.51">
        <route edges="E0 E2"/>
    </vehicle>
    <vehicle id="EW_car.63" type="car" depart="713.16">
        <route edges="-E1 E2"/>
    </vehicle>
    <vehicle id="SN_car.66" type="car" depart="717.82">
        <route edges="-E2 E1"/>
    </vehicle>
    <vehicle id="WE_car.69" type="car" depart="719.95">
        <route edges="E0 E1"/>
    </vehicle>
    <vehicle id="EW_car.64" type="car" depart="724.48">
        <route edges="-E1 -E0"/>
    </vehicle>
    <vehicle id="SN_car.67" type="car" depart="728.69">
        <route edges="-E2 E1"/>
    </vehicle>
    <vehicle id="WE_car.70" type="car" depart="730.38">
        <route edges="E0 E1"/>
    </vehicle>
    <vehicle id="EW_car.65" type="car" depart="735.80">
        <route edges="-E1 E2"/>
    </vehicle>
    <vehicle id="SN_car.68" type="car" depart="739.57">
        <route edges="-E2 E1"/>
    </vehicle>
    <vehicle id="WE_car.71" type="car" depart="740.81">
        <route edges="E0 E1"/>
    </vehicle>
    <vehicle id="EW_car.66" type="car" depart="747.12">
        <route edges="-E1 -E0"/>
    </vehicle>
    <vehicle id="SN_car.69" type="car" depart="750.44">
        <route edges="-E2 E1"/>
    </vehicle>
    <vehicle id="WE_car.72" type="car" depart="751.25">
        <route edges="E0 E1"/>
    </vehicle>
    <vehicle id="EW_car.67" type="car" depart="758.44">
        <route edges="-E1 E2"/>
    </vehicle>
    <vehicle id="SN_car.70" type="car" depart="761.32">
        <route edges="-E2 -E0"/>
    </vehicle>
    <vehicle id="WE_car.73" type="car" depart="761.68">
        <route edges="E0 E1"/>
    </vehicle>
    <vehicle id="EW_car.68" type="car" depart="769.76">
        <route edges="-E1 E2"/>
    </vehicle>
    <vehicle id="WE_car.74" type="car" depart="772.12">
        <route edges="E0 E2"/>
    </vehicle>
    <vehicle id="SN_car.71" type="car" depart="772.20">
        <route edges="-E2 E1"/>
    </vehicle>
    <vehicle id="EW_car.69" type="car" depart="781.08">
        <route edges="-E1 -E0"/>
    </vehicle>
    <vehicle id="WE_car.75" type="car" depart="782.55">
        <route edges="E0 E2"/>
    </vehicle>
    <vehicle id="SN_car.72" type="car" depart="783.07">
        <route edges="-E2 -E0"/>
    </vehicle>
    <vehicle id="EW_car.70" type="car" depart="792.40">
        <route edges="-E1 -E0"/>
    </vehicle>
    <vehicle id="WE_car.76" type="car" depart="792.98">
        <route edges="E0 E1"/>
    </vehicle>
    <vehicle id="SN_car.73" type="car" depart="793.95">
        <route edges="-E2 -E0"/>
    </vehicle>
    <vehicle id="WE_car.77" type="car" depart="803.42">
        <route edges="E0 E1"/>
    </vehicle>
    <vehicle id="EW_car.71" type="car" depart="803.72">
        <route edges="-E1 -E0"/>
    </vehicle>
    <vehicle id="SN_car.74" type="car" depart="804.82">
        <route edges="-E2 E1"/>
    </vehicle>
    <vehicle id="WE_car.78" type="car" depart="813.85">
        <route edges="E0 E2"/>
    </vehicle>
    <vehicle id="EW_car.72" type="car" depart="815.04">
        <route edges="-E1 E2"/>
    </vehicle>
    <vehicle id="SN_car.75" type="car" depart="815.70">
        <route edges="-E2 -E0"/>
    </vehicle>
    <vehicle id="WE_car.79" type="car" depart="824.29">
        <route edges="E0 E2"/>
    </vehicle>
    <vehicle id="EW_car.73" type="car" depart="826.36">
        <route edges="-E1 -E0"/>
    </vehicle>
    <vehicle id="SN_car.76" type="car" depart="826.58">
        <route edges="-E2 -E0"/>
    </vehicle>
    <vehicle id="WE_car.80" type="car" depart="834.72">
        <route edges="E0 E1"/>
    </vehicle>
    <vehicle id="SN_car.77" type="car" depart="837.45">
        <route edges="-E2 -E0"/>
    </vehicle>
    <vehicle id="EW_car.74" type="car" depart="837.68">
        <route edges="-E1 -E0"/>
    </vehicle>
    <vehicle id="WE_car.81" type="car" depart="845.15">
        <route edges="E0 E1"/>
    </vehicle>
    <vehicle id="SN_car.78" type="car" depart="848.33">
        <route edges="-E2 E1"/>
    </vehicle>
    <vehicle id="EW_car.75" type="car" depart="849.00">
        <route edges="-E1 E2"/>
    </vehicle>
    <vehicle id="WE_car.82" type="car" depart="855.59">
        <route edges="E0 E1"/>
    </vehicle>
    <vehicle id="SN_car.79" type="car" depart="859.20">
        <route edges="-E2 E1"/>
    </vehicle>
    <vehicle id="EW_car.76" type="car" depart="860.32">
        <route edges="-E1 -E0"/>
    </vehicle>
    <vehicle id="WE_car.83" type="car" depart="866.02">
        <route edges="E0 E1"/>
    </vehicle>
    <vehicle id="SN_car.80" type="car" depart="870.08">
        <route edges="-E2 -E0"/>
    </vehicle>
    <vehicle id="EW_car.77" type="car" depart="871.64">
        <route edges="-E1 E2"/>
    </vehicle>
    <vehicle id="WE_car.84" type="car" depart="876.46">
        <route edges="E0 E1"/>
    </vehicle>
    <vehicle id="SN_car.81" type="car" depart="880.96">
        <route edges="-E2 -E0"/>
    </vehicle>
    <vehicle id="EW_car.78" type="car" depart="882.96">
        <route edges="-E1 -E0"/>
    </vehicle>
    <vehicle id="WE_car.85" type="car" depart="886.89">
        <route edges="E0 E2"/>
    </vehicle>
    <vehicle id="SN_car.82" type="car" depart="891.83">
        <route edges="-E2 -E0"/>
    </vehicle>
    <vehicle id="EW_car.79" type="car" depart="894.28">
        <route edges="-E1 -E0"/>
    </vehicle>
    <vehicle id="WE_car.86" type="car" depart="897.32">
        <route edges="E0 E1"/>
    </vehicle>
    <vehicle id="SN_car.83" type="car" depart="902.71">
        <route edges="-E2 -E0"/>
    </vehicle>
    <vehicle id="EW_car.80" type="car" depart="905.60">
        <route edges="-E1 E2"/>
    </vehicle>
    <vehicle id="WE_car.87" type="car" depart="907.76">
        <route edges="E0 E1"/>
    </vehicle>
    <vehicle id="SN_car.84" type="car" depart="913.58">
        <route edges="-E2 E1"/>
    </vehicle>
    <vehicle id="EW_car.81" type="car" depart="916.92">
        <route edges="-E1 E2"/>
    </vehicle>
    <vehicle id="WE_car.88" type="car" depart="918.19">
        <route edges="E0 E1"/>
    </vehicle>
    <vehicle id="SN_car.85" type="car" depart="924.46">
        <route edges="-E2 E1"/>
    </vehicle>
    <vehicle id="EW_car.82" type="car" depart="928.24">
        <route edges="-E1 E2"/>
    </vehicle>
    <vehicle id="WE_car.89" type="car" depart="928.63">
        <route edges="E0 E1"/>
    </vehicle>
    <vehicle id="SN_car.86" type="car" depart="935.34">
        <route edges="-E2 -E0"/>
    </vehicle>
    <vehicle id="WE_car.90" type="car" depart="939.06">
        <route edges="E0 E1"/>
    </vehicle>
    <vehicle id="EW_car.83" type="car" depart="939.56">
        <route edges="-E1 E2"/>
    </vehicle>
    <vehicle id="SN_car.87" type="car" depart="946.21">
        <route edges="-E2 -E0"/>
    </vehicle>
    <vehicle id="WE_car.91" type="car" depart="949.49">
        <route edges="E0 E1"/>
    </vehicle>
    <vehicle id="EW_car.84" type="car" depart="950.88">
        <route edges="-E1 -E0"/>
    </vehicle>
    <vehicle id="SN_car.88" type="car" depart="957.09">
        <route edges="-E2 -E0"/>
    </vehicle>
    <vehicle id="WE_car.92" type="car" depart="959.93">
        <route edges="E0 E1"/>
    </vehicle>
    <vehicle id="EW_car.85" type="car" depart="962.20">
        <route edges="-E1 -E0"/>
    </vehicle>
    <vehicle id="SN_car.89" type="car" depart="967.96">
        <route edges="-E2 E1"/>
    </vehicle>
    <vehicle id="WE_car.93" type="car" depart="970.36">
        <route edges="E0 E2"/>
    </vehicle>
    <vehicle id="EW_car.86" type="car" depart="973.52">
        <route edges="-E1 E2"/>
    </vehicle>
    <vehicle id="SN_car.90" type="car" depart="978.84">
        <route edges="-E2 -E0"/>
    </vehicle>
    <vehicle id="WE_car.94" type="car" depart="980.80">
        <route edges="E0 E2"/>
    </vehicle>
    <vehicle id="EW_car.87" type="car" depart="984.84">
        <route edges="-E1 E2"/>
    </vehicle>
    <vehicle id="SN_car.91" type="car" depart="989.72">
        <route edges="-E2 -E0"/>
    </vehicle>
    <vehicle id="WE_car.95" type="car" depart="991.23">
        <route edges="E0 E1"/>
    </vehicle>
    <vehicle id="EW_car.88" type="car" depart="996.16">
        <route edges="-E1 E2"/>
    </vehicle>
    <vehicle id="SN_car.92" type="car" depart="1000.59">
        <route edges="-E2 E1"/>
    </vehicle>
    <vehicle id="WE_car.96" type="car" depart="1001.66">
        <route edges="E0 E2"/>
    </vehicle>
    <vehicle id="EW_car.89" type="car" depart="1007.48">
        <route edges="-E1 E2"/>
    </vehicle>
    <vehicle id="SN_car.93" type="car" depart="1011.47">
        <route edges="-E2 -E0"/>
    </vehicle>
    <vehicle id="WE_car.97" type="car" depart="1012.10">
        <route edges="E0 E1"/>
    </vehicle>
    <vehicle id="EW_car.90" type="car" depart="1018.80">
        <route edges="-E1 -E0"/>
    </vehicle>
    <vehicle id="SN_car.94" type="car" depart="1022.34">