<?xml version="1.0" encoding="UTF-8"?>

<!-- generated on 2026-05-23T14:44:45.603528+08:00 by Eclipse SUMO jtrrouter 1.26.0
<jtrrouterConfiguration xmlns:xsi="http://www.w3.org/2001/XMLSchema-instance" xsi:noNamespaceSchemaLocation="http://sumo.dlr.de/xsd/jtrrouterConfiguration.xsd">

    <input>
        <net-file value="demo_9.net.xml"/>
        <route-files value="demo_9.flow.xml"/>
        <turn-ratio-files value="demo_9.turn.xml"/>
    </input>

    <output>
        <output-file value="demo_9.rou.xml"/>
    </output>

    <time>
        <begin value="0"/>
        <end value="3600"/>
    </time>

</jtrrouterConfiguration>
-->

<routes xmlns:xsi="http://www.w3.org/2001/XMLSchema-instance" xsi:noNamespaceSchemaLocation="http://sumo.dlr.de/xsd/routes_file.xsd">
    <vType id="car" maxSpeed="37.00" vClass="passenger"/>
    <vehicle id="EN_car.0" type="car" depart="0.00">
        <route edges="-E2 E3"/>
    </vehicle>
    <vehicle id="EW_car.0" type="car" depart="0.00">
        <route edges="-E1 E4"/>
    </vehicle>
    <vehicle id="NS_car.0" type="car" depart="0.00">
        <route edges="-E3 -E0"/>
    </vehicle>
    <vehicle id="SN_car.0" type="car" depart="0.00">
        <route edges="-E4 E3"/>
    </vehicle>
    <vehicle id="WE_car.0" type="car" depart="0.00">
        <route edges="E0 E4"/>
    </vehicle>
    <vehicle id="SN_car.1" type="car" depart="7.45">
        <route edges="-E4 E1"/>
    </vehicle>
    <vehicle id="NS_car.1" type="car" depart="7.71">
        <route edges="-E3 E4"/>
    </vehicle>
    <vehicle id="EW_car.1" type="car" depart="10.06">
        <route edges="-E1 E2"/>
    </vehicle>
    <vehicle id="WE_car.1" type="car" depart="10.75">
        <route edges="E0 E4"/>
    </vehicle>
    <vehicle id="EN_car.1" type="car" depart="11.76">
        <route edges="-E2 E3"/>
    </vehicle>
    <vehicle id="SN_car.2" type="car" depart="14.91">
        <route edges="-E4 E1"/>
    </vehicle>
    <vehicle id="NS_car.2" type="car" depart="15.42">
        <route edges="-E3 E4"/>
    </vehicle>
    <vehicle id="EW_car.2" type="car" depart="20.11">
        <route edges="-E1 E3"/>
    </vehicle>
    <vehicle id="WE_car.2" type="car" depart="21.49">
        <route edges="E0 E3"/>
    </vehicle>
    <vehicle id="SN_car.3" type="car" depart="22.36">
        <route edges="-E4 E3"/>
    </vehicle>
    <vehicle id="NS_car.3" type="car" depart="23.12">
        <route edges="-E3 E1"/>
    </vehicle>
    <vehicle id="EN_car.2" type="car" depart="23.53">
        <route edges="-E2 E1"/>
    </vehicle>
    <vehicle id="SN_car.4" type="car" depart="29.81">
        <route edges="-E4 -E0"/>
    </vehicle>
    <vehicle id="EW_car.3" type="car" depart="30.17">
        <route edges="-E1 E3"/>
    </vehicle>
    <vehicle id="NS_car.4" type="car" depart="30.83">
        <route edges="-E3 E4"/>
    </vehicle>
    <vehicle id="WE_car.3" type="car" depart="32.24">
        <route edges="E0 E1"/>
    </vehicle>
    <vehicle id="EN_car.3" type="car" depart="35.29">
        <route edges="-E2 E3"/>
    </vehicle>
    <vehicle id="SN_car.5" type="car" depart="37.27">
        <route edges="-E4 E3"/>
    </vehicle>
    <vehicle id="NS_car.5" type="car" depart="38.54">
        <route edges="-E3 E4"/>
    </vehicle>
    <vehicle id="EW_car.4" type="car" depart="40.22">
        <route edges="-E1 E4"/>
    </vehicle>
    <vehicle id="WE_car.4" type="car" depart="42.98">
        <route edges="E0 E4"/>
    </vehicle>
    <vehicle id="SN_car.6" type="car" depart="44.72">
        <route edges="-E4 -E0"/>
    </vehicle>
    <vehicle id="NS_car.6" type="car" depart="46.25">
        <route edges="-E3 E1"/>
    </vehicle>
    <vehicle id="EN_car.4" type="car" depart="47.06">
        <route edges="-E2 E3"/>
    </vehicle>
    <vehicle id="EW_car.5" type="car" depart="50.28">
        <route edges="-E1 E2"/>
    </vehicle>
    <vehicle id="SN_car.7" type="car" depart="52.17">
        <route edges="-E4 E1"/>
    </vehicle>
    <vehicle id="WE_car.5" type="car" depart="53.73">
        <route edges="E0 E3"/>
    </vehicle>
    <vehicle id="NS_car.7" type="car" depart="53.96">
        <route edges="-E3 E4"/>
    </vehicle>
    <vehicle id="EN_car.5" type="car" depart="58.82">
        <route edges="-E2 E1"/>
    </vehicle>
    <vehicle id="SN_car.8" type="car" depart="59.62">
        <route edges="-E4 -E0"/>
    </vehicle>
    <vehicle id="EW_car.6" type="car" depart="60.33">
        <route edges="-E1 -E0"/>
    </vehicle>
    <vehicle id="NS_car.8" type="car" depart="61.66">
        <route edges="-E3 E4"/>
    </vehicle>
    <vehicle id="WE_car.6" type="car" depart="64.48">
        <route edges="E0 E3"/>
    </vehicle>
    <vehicle id="SN_car.9" type="car" depart="67.08">
        <route edges="-E4 E1"/>
    </vehicle>
    <vehicle id="NS_car.9" type="car" depart="69.37">
        <route edges="-E3 E1"/>
    </vehicle>
    <vehicle id="EW_car.7" type="car" depart="70.39">
        <route edges="-E1 E3"/>
    </vehicle>
    <vehicle id="EN_car.6" type="car" depart="70.58">
        <route edges="-E2 E3"/>
    </vehicle>
    <vehicle id="SN_car.10" type="car" depart="74.53">
        <route edges="-E4 E1"/>
    </vehicle>
    <vehicle id="WE_car.7" type="car" depart="75.22">
        <route edges="E0 E3"/>
    </vehicle>
    <vehicle id="NS_car.10" type="car" depart="77.08">
        <route edges="-E3 E1"/>
    </vehicle>
    <vehicle id="EW_car.8" type="car" depart="80.44">
        <route edges="-E1 E3"/>
    </vehicle>
    <vehicle id="SN_car.11" type="car" depart="81.98">
        <route edges="-E4 E1"/>
    </vehicle>
    <vehicle id="EN_car.7" type="car" depart="82.35">
        <route edges="-E2 E3"/>
    </vehicle>
    <vehicle id="NS_car.11" type="car" depart="84.79">
        <route edges="-E3 -E0"/>
    </vehicle>
    <vehicle id="WE_car.8" type="car" depart="85.97">
        <route edges="E0 E4"/>
    </vehicle>
    <vehicle id="SN_car.12" type="car" depart="89.44">
        <route edges="-E4 E3"/>
    </vehicle>
    <vehicle id="EW_car.9" type="car" depart="90.50">
        <route edges="-E1 E3"/>
    </vehicle>
    <vehicle id="NS_car.12" type="car" depart="92.50">
        <route edges="-E3 E4"/>
    </vehicle>
    <vehicle id="EN_car.8" type="car" depart="94.11">
        <route edges="-E2 E3"/>
    </vehicle>
    <vehicle id="WE_car.9" type="car" depart="96.71">
        <route edges="E0 E4"/>
    </vehicle>
    <vehicle id="SN_car.13" type="car" depart="96.89">
        <route edges="-E4 E3"/>
    </vehicle>
    <vehicle id="NS_car.13" type="car" depart="100.20">
        <route edges="-E3 E2"/>
    </vehicle>
    <vehicle id="EW_car.10" type="car" depart="100.55">
        <route edges="-E1 E3"/>
    </vehicle>
    <vehicle id="SN_car.14" type="car" depart="104.34">
        <route edges="-E4 E1"/>
    </vehicle>
    <vehicle id="EN_car.9" type="car" depart="105.88">
        <route edges="-E2 E3"/>
    </vehicle>
    <vehicle id="WE_car.10" type="car" depart="107.46">
        <route edges="E0 E3"/>
    </vehicle>
    <vehicle id="NS_car.14" type="car" depart="107.91">
        <route edges="-E3 E4"/>
    </vehicle>
    <vehicle id="EW_car.11" type="car" depart="110.61">
        <route edges="-E1 E2"/>
    </vehicle>
    <vehicle id="SN_car.15" type="car" depart="111.80">
        <route edges="-E4 E1"/>
    </vehicle>
    <vehicle id="NS_car.15" type="car" depart="115.62">
        <route edges="-E3 E1"/>
    </vehicle>
    <vehicle id="EN_car.10" type="car" depart="117.64">
        <route edges="-E2 E3"/>
    </vehicle>
    <vehicle id="WE_car.11" type="car" depart="118.21">
        <route edges="E0 E4"/>
    </vehicle>
    <vehicle id="SN_car.16" type="car" depart="119.25">
        <route edges="-E4 E1"/>
    </vehicle>
    <vehicle id="EW_car.12" type="car" depart="120.66">
        <route edges="-E1 E2"/>
    </vehicle>
    <vehicle id="NS_car.16" type="car" depart="123.33">
        <route edges="-E3 E4"/>
    </vehicle>
    <vehicle id="SN_car.17" type="car" depart="126.70">
        <route edges="-E4 E3"/>
    </vehicle>
    <vehicle id="WE_car.12" type="car" depart="128.95">
        <route edges="E0 E3"/>
    </vehicle>
    <vehicle id="EN_car.11" type="car" depart="129.40">
        <route edges="-E2 E1"/>
    </vehicle>
    <vehicle id="EW_car.13" type="car" depart="130.72">
        <route edges="-E1 E3"/>
    </vehicle>
    <vehicle id="NS_car.17" type="car" depart="131.04">
        <route edges="-E3 E1"/>
    </vehicle>
    <vehicle id="SN_car.18" type="car" depart="134.15">
        <route edges="-E4 E1"/>
    </vehicle>
    <vehicle id="NS_car.18" type="car" depart="138.74">
        <route edges="-E3 -E0"/>
    </vehicle>
    <vehicle id="WE_car.13" type="car" depart="139.70">
        <route edges="E0 E1"/>
    </vehicle>
    <vehicle id="EW_car.14" type="car" depart="140.77">
        <route edges="-E1 E4"/>
    </vehicle>
    <vehicle id="EN_car.12" type="car" depart="141.17">
        <route edges="-E2 E1"/>
    </vehicle>
    <vehicle id="SN_car.19" type="car" depart="141.61">
        <route edges="-E4 E1"/>
    </vehicle>
    <vehicle id="NS_car.19" type="car" depart="146.45">
        <route edges="-E3 E1"/>
    </vehicle>
    <vehicle id="SN_car.20" type="car" depart="149.06">
        <route edges="-E4 E3"/>
    </vehicle>
    <vehicle id="WE_car.14" type="car" depart="150.44">
        <route edges="E0 E3"/>
    </vehicle>
    <vehicle id="EW_car.15" type="car" depart="150.83">
        <route edges="-E1 E3"/>
    </vehicle>
    <vehicle id="EN_car.13" type="car" depart="152.93">
        <route edges="-E2 E1"/>
    </vehicle>
    <vehicle id="NS_car.20" type="car" depart="154.16">
        <route edges="-E3 E4"/>
    </vehicle>
    <vehicle id="SN_car.21" type="car" depart="156.51">
        <route edges="-E4 -E0"/>
    </vehicle>
    <vehicle id="EW_car.16" type="car" depart="160.88">
        <route edges="-E1 E3"/>
    </vehicle>
    <vehicle id="WE_car.15" type="car" depart="161.19">
        <route edges="E0 E3"/>
    </vehicle>
    <vehicle id="NS_car.21" type="car" depart="161.87">
        <route edges="-E3 E1"/>
    </vehicle>
    <vehicle id="SN_car.22" type="car" depart="163.97">
        <route edges="-E4 -E0"/>
    </vehicle>
    <vehicle id="EN_car.14" type="car" depart="164.70">
        <route edges="-E2 E1"/>
    </vehicle>
    <vehicle id="NS_car.22" type="car" depart="169.58">
        <route edges="-E3 E1"/>
    </vehicle>
    <vehicle id="EW_car.17" type="car" depart="170.94">
        <route edges="-E1 E2"/>
    </vehicle>
    <vehicle id="SN_car.23" type="car" depart="171.42">
        <route edges="-E4 -E0"/>
    </vehicle>
    <vehicle id="WE_car.16" type="car" depart="171.94">
        <route edges="E0 E4"/>
    </vehicle>
    <vehicle id="EN_car.15" type="car" depart="176.46">
        <route edges="-E2 E3"/>
    </vehicle>
    <vehicle id="NS_car.23" type="car" depart="177.28">
        <route edges="-E3 E2"/>
    </vehicle>
    <vehicle id="SN_car.24" type="car" depart="178.87">
        <route edges="-E4 E3"/>
    </vehicle>
    <vehicle id="EW_car.18" type="car" depart="180.99">
        <route edges="-E1 E4"/>
    </vehicle>
    <vehicle id="WE_car.17" type="car" depart="182.68">
        <route edges="E0 E3"/>
    </vehicle>
    <vehicle id="NS_car.24" type="car" depart="184.99">
        <route edges="-E3 E4"/>
    </vehicle>
    <vehicle id="SN_car.25" type="car" depart="186.33">
        <route edges="-E4 E3"/>
    </vehicle>
    <vehicle id="EN_car.16" type="car" depart="188.22">
        <route edges="-E2 E3"/>
    </vehicle>
    <vehicle id="EW_car.19" type="car" depart="191.05">
        <route edges="-E1 E2"/>
    </vehicle>
    <vehicle id="NS_car.25" type="car" depart="192.70">
        <route edges="-E3 E2"/>
    </vehicle>
    <vehicle id="WE_car.18" type="car" depart="193.43">
        <route edges="E0 E3"/>
    </vehicle>
    <vehicle id="SN_car.26" type="car" depart="193.78">
        <route edges="-E4 E3"/>
    </vehicle>
    <vehicle id="EN_car.17" type="car" depart="199.99">
        <route edges="-E2 E1"/>
    </vehicle>
    <vehicle id="NS_car.26" type="car" depart="200.41">
        <route edges="-E3 E2"/>
    </vehicle>
    <vehicle id="EW_car.20" type="car" depart="201.10">
        <route edges="-E1 E3"/>
    </vehicle>
    <vehicle id="SN_car.27" type="car" depart="201.23">
        <route edges="-E4 E3"/>
    </vehicle>
    <vehicle id="WE_car.19" type="car" depart="204.17">
        <route edges="E0 E3"/>
    </vehicle>
    <vehicle id="NS_car.27" type="car" depart="208.12">
        <route edges="-E3 E4"/>
    </vehicle>
    <vehicle id="SN_car.28" type="car" depart="208.68">
        <route edges="-E4 E1"/>
    </vehicle>
    <vehicle id="EW_car.21" type="car" depart="211.16">
        <route edges="-E1 E4"/>
    </vehicle>
    <vehicle id="EN_car.18" type="car" depart="211.75">
        <route edges="-E2 E1"/>
    </vehicle>
    <vehicle id="WE_car.20" type="car" depart="214.92">
        <route edges="E0 E4"/>
    </vehicle>
    <vehicle id="NS_car.28" type="car" depart="215.82">
        <route edges="-E3 E1"/>
    </vehicle>
    <vehicle id="SN_car.29" type="car" depart="216.14">
        <route edges="-E4 E3"/>
    </vehicle>
    <vehicle id="EW_car.22" type="car" depart="221.21">
        <route edges="-E1 -E0"/>
    </vehicle>
    <vehicle id="EN_car.19" type="car" depart="223.52">
        <route edges="-E2 E1"/>
    </vehicle>
    <vehicle id="NS_car.29" type="car" depart="223.53">
        <route edges="-E3 E4"/>
    </vehicle>
    <vehicle id="SN_car.30" type="car" depart="223.59">
        <route edges="-E4 -E0"/>
    </vehicle>
    <vehicle id="WE_car.21" type="car" depart="225.67">
        <route edges="E0 E4"/>
    </vehicle>
    <vehicle id="SN_car.31" type="car" depart="231.04">
        <route edges="-E4 E1"/>
    </vehicle>
    <vehicle id="NS_car.30" type="car" depart="231.24">
        <route edges="-E3 E4"/>
    </vehicle>
    <vehicle id="EW_car.23" type="car" depart="231.27">
        <route edges="-E1 E3"/>
    </vehicle>
    <vehicle id="EN_car.20" type="car" depart="235.28">
        <route edges="-E2 E3"/>
    </vehicle>
    <vehicle id="WE_car.22" type="car" depart="236.41">
        <route edges="E0 E3"/>
    </vehicle>
    <vehicle id="SN_car.32" type="car" depart="238.50">
        <route edges="-E4 E3"/>
    </vehicle>
    <vehicle id="NS_car.31" type="car" depart="238.95">
        <route edges="-E3 E1"/>
    </vehicle>
    <vehicle id="EW_car.24" type="car" depart="241.32">
        <route edges="-E1 E3"/>
    </vehicle>
    <vehicle id="SN_car.33" type="car" depart="245.95">
        <route edges="-E4 E3"/>
    </vehicle>
    <vehicle id="NS_car.32" type="car" depart="246.66">
        <route edges="-E3 E4"/>
    </vehicle>
    <vehicle id="EN_car.21" type="car" depart="247.04">
        <route edges="-E2 E3"/>
    </vehicle>
    <vehicle id="WE_car.23" type="car" depart="247.16">
        <route edges="E0 E3"/>
    </vehicle>
    <vehicle id="EW_car.25" type="car" depart="251.38">
        <route edges="-E1 E4"/>
    </vehicle>
    <vehicle id="SN_car.34" type="car" depart="253.40">
        <route edges="-E4 E3"/>
    </vehicle>
    <vehicle id="NS_car.33" type="car" depart="254.36">
        <route edges="-E3 E4"/>
    </vehicle>
    <vehicle id="WE_car.24" type="car" depart="257.90">
        <route edges="E0 E4"/>
    </vehicle>
    <vehicle id="EN_car.22" type="car" depart="258.81">
        <route edges="-E2 E3"/>
    </vehicle>
    <vehicle id="SN_car.35" type="car" depart="260.86">
        <route edges="-E4 E1"/>
    </vehicle>
    <vehicle id="EW_car.26" type="car" depart="261.43">
        <route edges="-E1 E4"/>
    </vehicle>
    <vehicle id="NS_car.34" type="car" depart="262.07">
        <route edges="-E3 E4"/>
    </vehicle>
    <vehicle id="SN_car.36" type="car" depart="268.31">
        <route edges="-E4 E3"/>
    </vehicle>
    <vehicle id="WE_car.25" type="car" depart="268.65">
        <route edges="E0 E4"/>
    </vehicle>
    <vehicle id="NS_car.35" type="car" depart="269.78">
        <route edges="-E3 E1"/>
    </vehicle>
    <vehicle id="EN_car.23" type="car" depart="270.57">
        <route edges="-E2 E1"/>
    </vehicle>
    <vehicle id="EW_car.27" type="car" depart="271.49">
        <route edges="-E1 E4"/>
    </vehicle>
    <vehicle id="SN_car.37" type="car" depart="275.76">
        <route edges="-E4 E3"/>
    </vehicle>
    <vehicle id="NS_car.36" type="car" depart="277.49">
        <route edges="-E3 E1"/>
    </vehicle>
    <vehicle id="WE_car.26" type="car" depart="279.40">
        <route edges="E0 E1"/>
    </vehicle>
    <vehicle id="EW_car.28" type="car" depart="281.54">
        <route edges="-E1 E3"/>
    </vehicle>
    <vehicle id="EN_car.24" type="car" depart="282.34">
        <route edges="-E2 E3"/>
    </vehicle>
    <vehicle id="SN_car.38" type="car" depart="283.21">
        <route edges="-E4 E1"/>
    </vehicle>
    <vehicle id="NS_car.37" type="car" depart="285.20">
        <route edges="-E3 E2"/>
    </vehicle>
    <vehicle id="WE_car.27" type="car" depart="290.14">
        <route edges="E0 E4"/>
    </vehicle>
    <vehicle id="SN_car.39" type="car" depart="290.67">
        <route edges="-E4 E3"/>
    </vehicle>
    <vehicle id="EW_car.29" type="car" depart="291.60">
        <route edges="-E1 E2"/>
    </vehicle>
    <vehicle id="NS_car.38" type="car" depart="292.90">
        <route edges="-E3 E4"/>
    </vehicle>
    <vehicle id="EN_car.25" type="car" depart="294.10">
        <route edges="-E2 E3"/>
    </vehicle>
    <vehicle id="SN_car.40" type="car" depart="298.12">
        <route edges="-E4 E3"/>
    </vehicle>
    <vehicle id="NS_car.39" type="car" depart="300.61">
        <route edges="-E3 E4"/>
    </vehicle>
    <vehicle id="WE_car.28" type="car" depart="300.89">
        <route edges="E0 E3"/>
    </vehicle>
    <vehicle id="EW_car.30" type="car" depart="301.65">
        <route edges="-E1 E4"/>
    </vehicle>
    <vehicle id="SN_car.41" type="car" depart="305.57">
        <route edges="-E4 E3"/>
    </vehicle>
    <vehicle id="EN_car.26" type="car" depart="305.86">
        <route edges="-E2 E3"/>
    </vehicle>
    <vehicle id="NS_car.40" type="car" depart="308.32">
        <route edges="-E3 E4"/>
    </vehicle>
    <vehicle id="WE_car.29" type="car" depart="311.63">
        <route edges="E0 E3"/>
    </vehicle>
    <vehicle id="EW_car.31" type="car" depart="311.71">
        <route edges="-E1 E2"/>
    </vehicle>
    <vehicle id="SN_car.42" type="car" depart="313.03">
        <route edges="-E4 E1"/>
    </vehicle>
    <vehicle id="NS_car.41" type="car" depart="316.03">
        <route edges="-E3 E2"/>
    </vehicle>
    <vehicle id="EN_car.27" type="car" depart="317.63">
        <route edges="-E2 E1"/>
    </vehicle>
    <vehicle id="SN_car.43" type="car" depart="320.48">
        <route edges="-E4 E3"/>
    </vehicle>
    <vehicle id="EW_car.32" type="car" depart="321.76">
        <route edges="-E1 E3"/>
    </vehicle>
    <vehicle id="WE_car.30" type="car" depart="322.38">
        <route edges="E0 E3"/>
    </vehicle>
    <vehicle id="NS_car.42" type="car" depart="323.74">
        <route edges="-E3 E4"/>
    </vehicle>
    <vehicle id="SN_car.44" type="car" depart="327.93">
        <route edges="-E4 E1"/>
    </vehicle>
    <vehicle id="EN_car.28" type="car" depart="329.39">
        <route edges="-E2 E3"/>
    </vehicle>
    <vehicle id="NS_car.43" type="car" depart="331.44">
        <route edges="-E3 E1"/>
    </vehicle>
    <vehicle id="EW_car.33" type="car" depart="331.82">
        <route edges="-E1 E4"/>
    </vehicle>
    <vehicle id="WE_car.31" type="car" depart="333.13">
        <route edges="E0 E3"/>
    </vehicle>
    <vehicle id="SN_car.45" type="car" depart="335.39">
        <route edges="-E4 E1"/>
    </vehicle>
    <vehicle id="NS_car.44" type="car" depart="339.15">
        <route edges="-E3 E1"/>
    </vehicle>
    <vehicle id="EN_car.29" type="car" depart="341.16">
        <route edges="-E2 E1"/>
    </vehicle>
    <vehicle id="EW_car.34" type="car" depart="341.87">
        <route edges="-E1 E2"/>
    </vehicle>
    <vehicle id="SN_car.46" type="car" depart="342.84">
        <route edges="-E4 -E0"/>
    </vehicle>
    <vehicle id="WE_car.32" type="car" depart="343.87">
        <route edges="E0 E3"/>
    </vehicle>
    <vehicle id="NS_car.45" type="car" depart="346.86">
        <route edges="-E3 E1"/>
    </vehicle>
    <vehicle id="SN_car.47" type="car" depart="350.29">
        <route edges="-E4 -E0"/>
    </vehicle>
    <vehicle id="EW_car.35" type="car" depart="351.93">
        <route edges="-E1 E3"/>
    </vehicle>
    <vehicle id="EN_car.30" type="car" depart="352.92">
        <route edges="-E2 E1"/>
    </vehicle>
    <vehicle id="NS_car.46" type="car" depart="354.57">
        <route edges="-E3 E1"/>
    </vehicle>
    <vehicle id="WE_car.33" type="car" depart="354.62">
        <route edges="E0 E4"/>
    </vehicle>
    <vehicle id="SN_car.48" type="car" depart="357.74">
        <route edges="-E4 E1"/>
    </vehicle>
    <vehicle id="EW_car.36" type="car" depart="361.98">
        <route edges="-E1 E4"/>
    </vehicle>
    <vehicle id="NS_car.47" type="car" depart="362.28">
        <route edges="-E3 E4"/>
    </vehicle>
    <vehicle id="EN_car.31" type="car" depart="364.68">
        <route edges="-E2 E3"/>
    </vehicle>
    <vehicle id="SN_car.49" type="car" depart="365.20">
        <route edges="-E4 E3"/>
    </vehicle>
    <vehicle id="WE_car.34" type="car" depart="365.36">
        <route edges="E0 E1"/>
    </vehicle>
    <vehicle id="NS_car.48" type="car" depart="369.98">
        <route edges="-E3 E4"/>
    </vehicle>
    <vehicle id="EW_car.37" type="car" depart="372.04">
        <route edges="-E1 -E0"/>
    </vehicle>
    <vehicle id="SN_car.50" type="car" depart="372.65">
        <route edges="-E4 E3"/>
    </vehicle>
    <vehicle id="WE_car.35" type="car" depart="376.11">
        <route edges="E0 E4"/>
    </vehicle>
    <vehicle id="EN_car.32" type="car" depart="376.45">
        <route edges="-E2 E3"/>
    </vehicle>
    <vehicle id="NS_car.49" type="car" depart="377.69">
        <route edges="-E3 E1"/>
    </vehicle>
    <vehicle id="SN_car.51" type="car" depart="380.10">
        <route edges="-E4 E3"/>
    </vehicle>
    <vehicle id="EW_car.38" type="car" depart="382.09">
        <route edges="-E1 -E0"/>
    </vehicle>
    <vehicle id="NS_car.50" type="car" depart="385.40">
        <route edges="-E3 E4"/>
    </vehicle>
    <vehicle id="WE_car.36" type="car" depart="386.86">
        <route edges="E0 E1"/>
    </vehicle>
    <vehicle id="SN_car.52" type="car" depart="387.56">
        <route edges="-E4 E3"/>
    </vehicle>
    <vehicle id="EN_car.33" type="car" depart="388.21">
        <route edges="-E2 E3"/>
    </vehicle>
    <vehicle id="EW_car.39" type="car" depart="392.15">
        <route edges="-E1 E4"/>
    </vehicle>
    <vehicle id="NS_car.51" type="car" depart="393.11">
        <route edges="-E3 E4"/>
    </vehicle>
    <vehicle id="SN_car.53" type="car" depart="395.01">
        <route edges="-E4 E1"/>
    </vehicle>
    <vehicle id="WE_car.37" type="car" depart="397.60">
        <route edges="E0 E4"/>
    </vehicle>
    <vehicle id="EN_car.34" type="car" depart="399.98">
        <route edges="-E2 E1"/>
    </vehicle>
    <vehicle id="NS_car.52" type="car" depart="400.82">
        <route edges="-E3 E1"/>
    </vehicle>
    <vehicle id="EW_car.40" type="car" depart="402.20">
        <route edges="-E1 E3"/>
    </vehicle>
    <vehicle id="SN_car.54" type="car" depart="402.46">
        <route edges="-E4 E1"/>
    </vehicle>
    <vehicle id="WE_car.38" type="car" depart="408.35">
        <route edges="E0 E4"/>
    </vehicle>
    <vehicle id="NS_car.53" type="car" depart="408.52">
        <route edges="-E3 E1"/>
    </vehicle>
    <vehicle id="SN_car.55" type="car" depart="409.92">
        <route edges="-E4 E3"/>
    </vehicle>
    <vehicle id="EN_car.35" type="car" depart="411.74">
        <route edges="-E2 E3"/>
    </vehicle>
    <vehicle id="EW_car.41" type="car" depart="412.26">
        <route edges="-E1 E4"/>
    </vehicle>
    <vehicle id="NS_car.54" type="car" depart="416.23">
        <route edges="-E3 E1"/>
    </vehicle>
    <vehicle id="SN_car.56" type="car" depart="417.37">
        <route edges="-E4 -E0"/>
    </vehicle>
    <vehicle id="WE_car.39" type="car" depart="419.09">
        <route edges="E0 E3"/>
    </vehicle>
    <vehicle id="EW_car.42" type="car" depart="422.31">
        <route edges="-E1 E2"/>
    </vehicle>
    <vehicle id="EN_car.36" type="car" depart="423.50">
        <route edges="-E2 E1"/>
    </vehicle>
    <vehicle id="NS_car.55" type="car" depart="423.94">
        <route edges="-E3 E1"/>
    </vehicle>
    <vehicle id="SN_car.57" type="car" depart="424.82">
        <route edges="-E4 E3"/>
    </vehicle>
    <vehicle id="WE_car.40" type="car" depart="429.84">
        <route edges="E0 E3"/>
    </vehicle>
    <vehicle id="NS_car.56" type="car" depart="431.65">
        <route edges="-E3 E4"/>
    </vehicle>
    <vehicle id="SN_car.58" type="car" depart="432.27">
        <route edges="-E4 -E0"/>
    </vehicle>
    <vehicle id="EW_car.43" type="car" depart="432.37">
        <route edges="-E1 E3"/>
    </vehicle>
    <vehicle id="EN_car.37" type="car" depart="435.27">
        <route edges="-E2 E3"/>
    </vehicle>
    <vehicle id="NS_car.57" type="car" depart="439.36">
        <route edges="-E3 E1"/>
    </vehicle>
    <vehicle id="SN_car.59" type="car" depart="439.73">
        <route edges="-E4 E1"/>
    </vehicle>
    <vehicle id="WE_car.41" type="car" depart="440.59">
        <route edges="E0 E3"/>
    </vehicle>
    <vehicle id="EW_car.44" type="car" depart="442.42">
        <route edges="-E1 E3"/>
    </vehicle>
    <vehicle id="EN_car.38" type="car" depart="447.03">
        <route edges="-E2 E1"/>
    </vehicle>
    <vehicle id="NS_car.58" type="car" depart="447.06">
        <route edges="-E3 -E0"/>
    </vehicle>
    <vehicle id="SN_car.60" type="car" depart="447.18">
        <route edges="-E4 E1"/>
    </vehicle>
    <vehicle id="WE_car.42" type="car" depart="451.33">
        <route edges="E0 E4"/>
    </vehicle>
    <vehicle id="EW_car.45" type="car" depart="452.48">
        <route edges="-E1 E2"/>
    </vehicle>
    <vehicle id="SN_car.61" type="car" depart="454.63">
        <route edges="-E4 E3"/>
    </vehicle>
    <vehicle id="NS_car.59" type="car" depart="454.77">
        <route edges="-E3 E1"/>
    </vehicle>
    <vehicle id="EN_car.39" type="car" depart="458.80">
        <route edges="-E2 E1"/>
    </vehicle>
    <vehicle id="WE_car.43" type="car" depart="462.08">
        <route edges="E0 E4"/>
    </vehicle>
    <vehicle id="SN_car.62" type="car" depart="462.09">
        <route edges="-E4 E3"/>
    </vehicle>
    <vehicle id="NS_car.60" type="car" depart="462.48">
        <route edges="-E3 E4"/>
    </vehicle>
    <vehicle id="EW_car.46" type="car" depart="462.53">
        <route edges="-E1 E3"/>
    </vehicle>
    <vehicle id="SN_car.63" type="car" depart="469.54">
        <route edges="-E4 E3"/>
    </vehicle>
    <vehicle id="NS_car.61" type="car" depart="470.19">
        <route edges="-E3 E4"/>
    </vehicle>
    <vehicle id="EN_car.40" type="car" depart="470.56">
        <route edges="-E2 E3"/>
    </vehicle>
    <vehicle id="EW_car.47" type="car" depart="472.59">
        <route edges="-E1 E3"/>
    </vehicle>
    <vehicle id="WE_car.44" type="car" depart="472.82">
        <route edges="E0 E3"/>
    </vehicle>
    <vehicle id="SN_car.64" type="car" depart="476.99">
        <route edges="-E4 E3"/>
    </vehicle>
    <vehicle id="NS_car.62" type="car" depart="477.90">
        <route edges="-E3 E4"/>
    </vehicle>
    <vehicle id="EN_car.41" type="car" depart="482.32">
        <route edges="-E2 E1"/>
    </vehicle>
    <vehicle id="EW_car.48" type="car" depart="482.64">
        <route edges="-E1 E2"/>
    </vehicle>
    <vehicle id="WE_car.45" type="car" depart="483.57">
        <route edges="E0 E3"/>
    </vehicle>
    <vehicle id="SN_car.65" type="car" depart="484.45">
        <route edges="-E4 E3"/>
    </vehicle>
    <vehicle id="NS_car.63" type="car" depart="485.60">
        <route edges="-E3 E4"/>
    </vehicle>
    <vehicle id="SN_car.66" type="car" depart="491.90">
        <route edges="-E4 E1"/>
    </vehicle>
    <vehicle id="EW_car.49" type="car" depart="492.70">
        <route edges="-E1 E4"/>
    </vehicle>
    <vehicle id="NS_car.64" type="car" depart="493.31">
        <route edges="-E3 E4"/>
    </vehicle>
    <vehicle id="EN_car.42" type="car" depart="494.09">
        <route edges="-E2 E3"/>
    </vehicle>
    <vehicle id="WE_car.46" type="car" depart="494.32">
        <route edges="E0 E1"/>
    </vehicle>
    <vehicle id="SN_car.67" type="car" depart="499.35">
        <route edges="-E4 -E0"/>
    </vehicle>
    <vehicle id="NS_car.65" type="car" depart="501.02">
        <route edges="-E3 E4"/>
    </vehicle>
    <vehicle id="EW_car.50" type="car" depart="502.75">
        <route edges="-E1 -E0"/>
    </vehicle>
    <vehicle id="WE_car.47" type="car" depart="505.06">
        <route edges="E0 E3"/>
    </vehicle>
    <vehicle id="EN_car.43" type="car" depart="505.85">
        <route edges="-E2 E3"/>
    </vehicle>
    <vehicle id="SN_car.68" type="car" depart="506.80">
        <route edges="-E4 E3"/>
    </vehicle>
    <vehicle id="NS_car.66" type="car" depart="508.73">
        <route edges="-E3 E4"/>
    </vehicle>
    <vehicle id="EW_car.51" type="car" depart="512.81">
        <route edges="-E1 E4"/>
    </vehicle>
    <vehicle id="SN_car.69" type="car" depart="514.26">
        <route edges="-E4 E1"/>
    </vehicle>
    <vehicle id="WE_car.48" type="car" depart="515.81">
        <route edges="E0 E4"/>
    </vehicle>
    <vehicle id="NS_car.67" type="car" depart="516.44">
        <route edges="-E3 E2"/>
    </vehicle>
    <vehicle id="EN_car.44" type="car" depart="517.62">
        <route edges="-E2 E1"/>
    </vehicle>
    <vehicle id="SN_car.70" type="car" depart="521.71">