<?xml version="1.0" encoding="UTF-8"?>

<!-- generated on 2026-05-23T14:37:30.113419+08:00 by Eclipse SUMO netedit 1.26.0
<neteditConfiguration xmlns:xsi="http://www.w3.org/2001/XMLSchema-instance" xsi:noNamespaceSchemaLocation="http://sumo.dlr.de/xsd/neteditConfiguration.xsd">

    <input>
        <sumo-net-file value="D:\sumo\sumo仿真\铃铛阁大街、雄昝路、雄州路（五岔交叉口）\9.net.xml"/>
    </input>

    <output>
        <output-file value="D:\sumo\sumo仿真\铃铛阁大街、雄昝路、雄州路（五岔交叉口）\9.net.xml"/>
    </output>

    <processing>
        <offset.disable-normalization value="true"/>
    </processing>

    <junctions>
        <no-turnarounds value="true"/>
    </junctions>

    <netedit>
        <new-network value="false"/>
    </netedit>

</neteditConfiguration>
-->

<net version="1.20" junctionCornerDetail="5" limitTurnSpeed="5.50" xmlns:xsi="http://www.w3.org/2001/XMLSchema-instance" xsi:noNamespaceSchemaLocation="http://sumo.dlr.de/xsd/net_file.xsd">

    <location netOffset="0.00,0.00" convBoundary="-68.50,-103.84,77.51,89.57" origBoundary="10000000000.00,10000000000.00,-10000000000.00,-10000000000.00" projParameter="!"/>

    <edge id=":J1_0" function="internal">
        <lane id=":J1_0_0" index="0" speed="10.78" length="22.83" shape="2.96,23.04 1.50,14.30 -0.35,8.00 -2.58,4.16 -5.20,2.77"/>
    </edge>
    <edge id=":J1_1" function="internal">
        <lane id=":J1_1_0" index="0" speed="13.89" length="29.85" shape="2.96,23.04 2.00,15.54 1.22,7.97 0.91,0.41 1.37,-7.09"/>
        <lane id=":J1_1_1" index="1" speed="13.89" length="29.85" shape="6.14,22.63 5.18,15.26 4.39,7.97 4.08,0.68 4.54,-6.69"/>
    </edge>
    <edge id=":J1_3" function="internal">
        <lane id=":J1_3_0" index="0" speed="10.77" length="8.47" shape="6.14,22.63 5.75,14.17"/>
    </edge>
    <edge id=":J1_4" function="internal">
        <lane id=":J1_4_0" index="0" speed="7.12" length="2.31" shape="6.14,22.63 6.59,20.36"/>
    </edge>
    <edge id=":J1_18" function="internal">
        <lane id=":J1_18_0" index="0" speed="10.77" length="19.82" shape="5.75,14.17 5.68,12.81 7.18,5.72 10.63,1.35 16.04,-0.28"/>
    </edge>
    <edge id=":J1_19" function="internal">
        <lane id=":J1_19_0" index="0" speed="7.12" length="17.36" shape="6.59,20.36 7.14,17.62 10.72,14.85 15.42,14.77 19.81,17.80"/>
    </edge>
    <edge id=":J1_5" function="internal">
        <lane id=":J1_5_0" index="0" speed="5.51" length="11.03" shape="17.30,19.79 14.73,17.05 13.07,16.47 12.32,18.06 12.49,21.82"/>
    </edge>
    <edge id=":J1_6" function="internal">
        <lane id=":J1_6_0" index="0" speed="8.83" length="25.91" shape="17.30,19.79 12.61,13.02 9.88,6.65 10.55,1.82 16.04,-0.28"/>
    </edge>
    <edge id=":J1_7" function="internal">
        <lane id=":J1_7_0" index="0" speed="7.58" length="18.69" shape="16.17,2.92 13.44,3.97 13.14,6.80 15.26,11.41 19.81,17.80"/>
    </edge>
    <edge id=":J1_8" function="internal">
        <lane id=":J1_8_0" index="0" speed="9.29" length="20.76" shape="16.17,2.92 13.66,4.20 12.21,7.77 11.82,13.64 12.49,21.82"/>
    </edge>
    <edge id=":J1_9" function="internal">
        <lane id=":J1_9_0" index="0" speed="13.89" length="21.37" shape="16.17,2.92 11.43,3.03 5.49,3.03 -0.45,2.95 -5.20,2.77"/>
    </edge>
    <edge id=":J1_10" function="internal">
        <lane id=":J1_10_0" index="0" speed="8.42" length="5.91" shape="16.17,2.92 10.60,2.52 10.30,2.38"/>
    </edge>
    <edge id=":J1_20" function="internal">
        <lane id=":J1_20_0" index="0" speed="8.42" length="11.93" shape="10.30,2.38 6.81,0.79 4.79,-2.28 4.54,-6.69"/>
    </edge>
    <edge id=":J1_11" function="internal">
        <lane id=":J1_11_0" index="0" speed="6.17" length="9.05" shape="10.89,-5.88 10.94,-3.34 11.81,-1.56 13.51,-0.54 16.04,-0.28"/>
    </edge>
    <edge id=":J1_12" function="internal">
        <lane id=":J1_12_0" index="0" speed="13.89" length="28.23" shape="10.89,-5.88 10.43,1.24 10.74,7.97 11.52,14.70 12.49,21.82"/>
        <lane id=":J1_12_1" index="1" speed="13.89" length="28.23" shape="7.72,-6.28 7.26,0.96 7.57,7.97 8.35,14.98 9.31,22.22"/>
    </edge>
    <edge id=":J1_14" function="internal">
        <lane id=":J1_14_0" index="0" speed="9.10" length="3.14" shape="7.72,-6.28 6.81,-3.27"/>
    </edge>
    <edge id=":J1_21" function="internal">
        <lane id=":J1_21_0" index="0" speed="9.10" length="14.55" shape="6.81,-3.27 6.45,-2.06 3.87,0.85 -0.01,2.47 -5.20,2.77"/>
    </edge>
    <edge id=":J1_15" function="internal">
        <lane id=":J1_15_0" index="0" speed="7.08" length="10.33" shape="-5.01,-0.42 -2.55,-0.72 -0.67,-1.93 0.64,-4.05 1.37,-7.09"/>
    </edge>
    <edge id=":J1_16" function="internal">
        <lane id=":J1_16_0" index="0" speed="13.89" length="21.05" shape="-5.01,-0.42 -0.31,-0.25 5.51,-0.16 11.34,-0.17 16.04,-0.28"/>
    </edge>
    <edge id=":J1_17" function="internal">
        <lane id=":J1_17_0" index="0" speed="12.09" length="2.72" shape="-5.01,-0.42 -2.42,0.41"/>
    </edge>
    <edge id=":J1_22" function="internal">
        <lane id=":J1_22_0" index="0" speed="12.09" length="26.21" shape="-2.42,0.41 0.20,1.25 4.33,5.58 7.36,12.57 9.31,22.22"/>
    </edge>

    <edge id="-E0" from="J1" to="J0" priority="-1">
        <lane id="-E0_0" index="0" speed="13.89" length="63.51" shape="-5.20,2.77 -68.60,-1.01"/>
    </edge>
    <edge id="-E1" from="J2" to="J1" priority="-1">
        <lane id="-E1_0" index="0" speed="13.89" length="61.46" shape="77.58,0.36 16.17,2.92"/>
    </edge>
    <edge id="-E2" from="J3" to="J1" priority="-1">
        <lane id="-E2_0" index="0" speed="13.89" length="74.19" shape="63.37,77.94 17.30,19.79"/>
    </edge>
    <edge id="-E3" from="J4" to="J1" priority="-1">
        <lane id="-E3_0" index="0" speed="13.89" length="67.69" shape="11.57,90.18 2.96,23.04"/>
        <lane id="-E3_1" index="1" speed="13.89" length="67.69" shape="14.74,89.77 6.14,22.63"/>
    </edge>
    <edge id="-E4" from="J5" to="J1" priority="-1">
        <lane id="-E4_0" index="0" speed="13.89" length="98.14" shape="23.28,-103.23 10.89,-5.88"/>
        <lane id="-E4_1" index="1" speed="13.89" length="98.14" shape="20.11,-103.64 7.72,-6.28"/>
    </edge>
    <edge id="E0" from="J0" to="J1" priority="-1">
        <lane id="E0_0" index="0" speed="13.89" length="63.51" shape="-68.40,-4.21 -5.01,-0.42"/>
    </edge>
    <edge id="E1" from="J1" to="J2" priority="-1">
        <lane id="E1_0" index="0" speed="13.89" length="61.46" shape="16.04,-0.28 77.44,-2.84"/>
    </edge>
    <edge id="E2" from="J1" to="J3" priority="-1">
        <lane id="E2_0" index="0" speed="13.89" length="74.19" shape="19.81,17.80 65.87,75.96"/>
    </edge>
    <edge id="E3" from="J1" to="J4" priority="-1">
        <lane id="E3_0" index="0" speed="13.89" length="67.69" shape="12.49,21.82 21.09,88.96"/>
        <lane id="E3_1" index="1" speed="13.89" length="67.69" shape="9.31,22.22 17.92,89.37"/>
    </edge>
    <edge id="E4" from="J1" to="J5" priority="-1">
        <lane id="E4_0" index="0" speed="13.89" length="98.14" shape="1.37,-7.09 13.76,-104.45"/>
        <lane id="E4_1" index="1" speed="13.89" length="98.14" shape="4.54,-6.69 16.93,-104.04"/>
    </edge>

    <tlLogic id="J1" type="static" programID="0" offset="0">
        <phase duration="56" state="GGGggrrrrrrGGGgrrr"/>
        <phase duration="3"  state="yyyyyrrrrrryyyyrrr"/>
        <phase duration="48" state="rrrrrrrGGGgrrrrGGg"/>
        <phase duration="3"  state="rrrrrrrGyyyrrrryyy"/>
        <phase duration="32" state="rrrrrGGrrrrrrrrrrr"/>
        <phase duration="3"  state="rrrrryyyrrrrrrrrrr"/>
    </tlLogic>

    <junction id="J0" type="dead_end" x="-68.50" y="-2.61" incLanes="-E0_0" intLanes="" shape="-68.50,-2.61 -68.69,0.58 -68.50,-2.61"/>
    <junction id="J1" type="traffic_light" x="5.08" y="1.78" incLanes="-E3_0 -E3_1 -E2_0 -E1_0 -E4_0 -E4_1 E0_0" intLanes=":J1_0_0 :J1_1_0 :J1_1_1 :J1_18_0 :J1_19_0 :J1_5_0 :J1_6_0 :J1_7_0 :J1_8_0 :J1_9_0 :J1_20_0 :J1_11_0 :J1_12_0 :J1_12_1 :J1_21_0 :J1_15_0 :J1_16_0 :J1_22_0" shape="1.38,23.24 14.07,21.61 16.05,20.78 21.07,16.81 18.27,13.11 16.27,10.07 15.07,7.69 14.66,5.97 15.05,4.91 16.24,4.52 15.97,-1.88 13.81,-2.23 13.10,-2.74 12.64,-3.49 12.44,-4.47 12.48,-5.68 -0.22,-7.29 -1.05,-4.26 -1.74,-3.22 -2.61,-2.50 -3.67,-2.10 -4.91,-2.02 -5.29,4.37 -2.65,6.58 -1.48,9.21 -0.42,12.87 0.53,17.55">
        <request index="0"  response="000000000000000000" foes="000100001000000000" cont="0"/>
        <request index="1"  response="100000000000000000" foes="111100011000000000" cont="0"/>
        <request index="2"  response="100000010000000000" foes="111100011000000000" cont="0"/>
        <request index="3"  response="100011110000000000" foes="110011111001000000" cont="1"/>
        <request index="4"  response="100011000000000000" foes="100011000111000000" cont="1"/>
        <request index="5"  response="000011000000000000" foes="000011000100000000" cont="0"/>
        <request index="6"  response="010000111000011000" foes="010000111100011000" cont="0"/>
        <request index="7"  response="000000000000010000" foes="000000000000010000" cont="0"/>
        <request index="8"  response="000011000001110000" foes="000011000001110000" cont="0"/>
        <request index="9"  response="000111000000001111" foes="100111000001001111" cont="0"/>
        <request index="10" response="010111000001001110" foes="010111000001001110" cont="1"/>
        <request index="11" response="000000000000000000" foes="010000000001001000" cont="0"/>
        <request index="12" response="000000010000000000" foes="110000011100111000" cont="0"/>
        <request index="13" response="100000010000000000" foes="110000011100111000" cont="0"/>
        <request index="14" response="100000010000000111" foes="110000011000000111" cont="1"/>
        <request index="15" response="000000000000000110" foes="000000000000000110" cont="0"/>
        <request index="16" response="000111100000001110" foes="000111110001001110" cont="0"/>
        <request index="17" response="000111001000011110" foes="000111001000011110" cont="1"/>
    </junction>
    <junction id="J2" type="dead_end" x="77.51" y="-1.24" incLanes="E1_0" intLanes="" shape="77.51,-1.24 77.38,-4.44 77.51,-1.24"/>
    <junction id="J3" type="dead_end" x="64.62" y="76.95" incLanes="E2_0" intLanes="" shape="64.62,76.95 67.13,74.96 64.62,76.95"/>
    <junction id="J4" type="dead_end" x="16.33" y="89.57" incLanes="E3_0 E3_1" intLanes="" shape="16.33,89.57 22.68,88.76 16.33,89.57"/>
    <junction id="J5" type="dead_end" x="18.52" y="-103.84" incLanes="E4_0 E4_1" intLanes="" shape="18.52,-103.84 12.17,-104.65 18.52,-103.84"/>

    <junction id=":J1_18_0" type="internal" x="5.75" y="14.17" incLanes=":J1_3_0 -E4_0 -E4_1" intLanes=":J1_6_0 :J1_9_0 :J1_10_0 :J1_11_0 :J1_12_0 :J1_12_1 :J1_16_0 :J1_17_0"/>
    <junction id=":J1_19_0" type="internal" x="6.59" y="20.36" incLanes=":J1_4_0 -E4_0 -E4_1" intLanes=":J1_6_0 :J1_7_0 :J1_8_0 :J1_12_0 :J1_12_1 :J1_17_0"/>
    <junction id=":J1_20_0" type="internal" x="10.30" y="2.38" incLanes=":J1_10_0 E0_0" intLanes=":J1_1_0 :J1_1_1 :J1_3_0 :J1_6_0 :J1_12_0 :J1_12_1 :J1_14_0 :J1_15_0 :J1_16_0"/>
    <junction id=":J1_21_0" type="internal" x="6.81" y="-3.27" incLanes=":J1_14_0 -E3_0 -E3_1" intLanes=":J1_0_0 :J1_1_0 :J1_1_1 :J1_9_0 :J1_10_0 :J1_16_0 :J1_17_0"/>
    <junction id=":J1_22_0" type="internal" x="-2.42" y="0.41" incLanes=":J1_17_0 -E1_0" intLanes=":J1_1_0 :J1_1_1 :J1_3_0 :J1_4_0 :J1_5_0 :J1_8_0 :J1_9_0 :J1_12_0 :J1_12_1 :J1_14_0"/>

    <connection from="-E1" to="E2" fromLane="0" toLane="0" via=":J1_7_0" tl="J1" linkIndex="7" dir="r" state="o"/>
    <connection from="-E1" to="E3" fromLane="0" toLane="0" via=":J1_8_0" tl="J1" linkIndex="8" dir="r" state="o"/>
    <connection from="-E1" to="-E0" fromLane="0" toLane="0" via=":J1_9_0" tl="J1" linkIndex="9" dir="s" state="o"/>
    <connection from="-E1" to="E4" fromLane="0" toLane="1" via=":J1_10_0" tl="J1" linkIndex="10" dir="l" state="o"/>
    <connection from="-E2" to="E3" fromLane="0" toLane="0" via=":J1_5_0" tl="J1" linkIndex="5" dir="r" state="o"/>
    <connection from="-E2" to="E1" fromLane="0" toLane="0" via=":J1_6_0" tl="J1" linkIndex="6" dir="l" state="o"/>
    <connection from="-E3" to="-E0" fromLane="0" toLane="0" via=":J1_0_0" tl="J1" linkIndex="0" dir="r" state="O"/>
    <connection from="-E3" to="E4" fromLane="0" toLane="0" via=":J1_1_0" tl="J1" linkIndex="1" dir="s" state="O"/>
    <connection from="-E3" to="E4" fromLane="1" toLane="1" via=":J1_1_1" tl="J1" linkIndex="2" dir="s" state="O"/>
    <connection from="-E3" to="E1" fromLane="1" toLane="0" via=":J1_3_0" tl="J1" linkIndex="3" dir="l" state="o"/>
    <connection from="-E3" to="E2" fromLane="1" toLane="0" via=":J1_4_0" tl="J1" linkIndex="4" dir="l" state="o"/>
    <connection from="-E4" to="E1" fromLane="0" toLane="0" via=":J1_11_0" tl="J1" linkIndex="11" dir="r" state="O"/>
    <connection from="-E4" to="E3" fromLane="0" toLane="0" via=":J1_12_0" tl="J1" linkIndex="12" dir="s" state="O"/>
    <connection from="-E4" to="E3" fromLane="1" toLane="1" via=":J1_12_1" tl="J1" linkIndex="13" dir="s" state="O"/>
    <connection from="-E4" to="-E0" fromLane="1" toLane="0" via=":J1_14_0" tl="J1" linkIndex="14" dir="l" state="o"/>
    <connection from="E0" to="E4" fromLane="0" toLane="0" via=":J1_15_0" tl="J1" linkIndex="15" dir="r" state="o"/>
    <connection from="E0" to="E1" fromLane="0" toLane="0" via=":J1_16_0" tl="J1" linkIndex="16" dir="s" state="o"/>
    <connection from="E0" to="E3" fromLane="0" toLane="1" via=":J1_17_0" tl="J1" linkIndex="17" dir="l" state="o"/>

    <connection from=":J1_0" to="-E0" fromLane="0" toLane="0" dir="r" state="M"/>
    <connection from=":J1_1" to="E4" fromLane="0" toLane="0" dir="s" state="M"/>
    <connection from=":J1_1" to="E4" fromLane="1" toLane="1" dir="s" state="M"/>
    <connection from=":J1_3" to="E1" fromLane="0" toLane="0" via=":J1_18_0" dir="l" state="m"/>
    <connection from=":J1_18" to="E1" fromLane="0" toLane="0" dir="l" state="M"/>
    <connection from=":J1_4" to="E2" fromLane="0" toLane="0" via=":J1_19_0" dir="l" state="m"/>
    <connection from=":J1_19" to="E2" fromLane="0" toLane="0" dir="l" state="M"/>
    <connection from=":J1_5" to="E3" fromLane="0" toLane="0" dir="r" state="M"/>
    <connection from=":J1_6" to="E1" fromLane="0" toLane="0" dir="l" state="M"/>
    <connection from=":J1_7" to="E2" fromLane="0" toLane="0" dir="r" state="M"/>
    <connection from=":J1_8" to="E3" fromLane="0" toLane="0" dir="r" state="M"/>
    <connection from=":J1_9" to="-E0" fromLane="0" toLane="0" dir="s" state="M"/>
    <connection from=":J1_10" to="E4" fromLane="0" toLane="1" via=":J1_20_0" dir="l" state="m"/>
    <connection from=":J1_20" to="E4" fromLane="0" toLane="1" dir="l" state="M"/>
    <connection from=":J1_11" to="E1" fromLane="0" toLane="0" dir="r" state="M"/>
    <connection from=":J1_12" to="E3" fromLane="0" toLane="0" dir="s" state="M"/>
    <connection from=":J1_12" to="E3" fromLane="1" toLane="1" dir="s" state="M"/>
    <connection from=":J1_14" to="-E0" fromLane="0" toLane="0" via=":J1_21_0" dir="l" state="m"/>
    <connection from=":J1_21" to="-E0" fromLane="0" toLane="0" dir="l" state="M"/>
    <connection from=":J1_15" to="E4" fromLane="0" toLane="0" dir="r" state="M"/>
    <connection from=":J1_16" to="E1" fromLane="0" toLane="0" dir="s" state="M"/>
    <connection from=":J1_17" to="E3" fromLane="0" toLane="1" via=":J1_22_0" dir="l" state="m"/>
    <connection from=":J1_22" to="E3" fromLane="0" toLane="1" dir="l" state="M"/>

</net>
