<?xml version="1.0" encoding="UTF-8"?>

<!-- generated on 2026-05-23 16:18:45 by Eclipse SUMO jtrrouter Version 1.23.1
<jtrrouterConfiguration xmlns:xsi="http://www.w3.org/2001/XMLSchema-instance" xsi:noNamespaceSchemaLocation="http://sumo.dlr.de/xsd/jtrrouterConfiguration.xsd">

    <input>
        <net-file value="demo_18.net.xml"/>
        <route-files value="demo_18.flow.xml"/>
        <turn-ratio-files value="demo_18.turn.xml"/>
    </input>

    <output>
        <output-file value="demo_18.rou.xml"/>
    </output>

    <time>
        <begin value="0"/>
        <end value="3600"/>
    </time>

</jtrrouterConfiguration>
-->

<routes xmlns:xsi="http://www.w3.org/2001/XMLSchema-instance" xsi:noNamespaceSchemaLocation="http://sumo.dlr.de/xsd/routes_file.xsd">
    <vType id="car" maxSpeed="37.00" vClass="passenger"/>
    <vehicle id="EW_car.0" type="car" depart="0.00">
        <route edges="-E1 -E1.42 E3"/>
    </vehicle>
    <vehicle id="NS_car.0" type="car" depart="0.00">
        <route edges="-E3 -E0"/>
    </vehicle>
    <vehicle id="SN_car.0" type="car" depart="0.00">
        <route edges="-E2 -E2.41 E1"/>
    </vehicle>
    <vehicle id="WE_car.0" type="car" depart="0.00">
        <route edges="E0 E0.40 E3"/>
    </vehicle>
    <vehicle id="EW_car.1" type="car" depart="4.32">
        <route edges="-E1 -E1.42 E2"/>
    </vehicle>
    <vehicle id="WE_car.1" type="car" depart="5.21">
        <route edges="E0 E0.40 E1"/>
    </vehicle>
    <vehicle id="SN_car.1" type="car" depart="5.74">
        <route edges="-E2 -E2.41 E1"/>
    </vehicle>
    <vehicle id="NS_car.1" type="car" depart="6.15">
        <route edges="-E3 E1"/>
    </vehicle>
    <vehicle id="EW_car.2" type="car" depart="8.63">
        <route edges="-E1 -E1.42 -E0"/>
    </vehicle>
    <vehicle id="WE_car.2" type="car" depart="10.42">
        <route edges="E0 E0.40 E3"/>
    </vehicle>
    <vehicle id="SN_car.2" type="car" depart="11.48">
        <route edges="-E2 -E2.41 E3"/>
    </vehicle>
    <vehicle id="NS_car.2" type="car" depart="12.31">
        <route edges="-E3 -E0"/>
    </vehicle>
    <vehicle id="EW_car.3" type="car" depart="12.95">
        <route edges="-E1 -E1.42 -E0"/>
    </vehicle>
    <vehicle id="WE_car.3" type="car" depart="15.63">
        <route edges="E0 E0.40 E3"/>
    </vehicle>
    <vehicle id="SN_car.3" type="car" depart="17.22">
        <route edges="-E2 -E2.41 E3"/>
    </vehicle>
    <vehicle id="EW_car.4" type="car" depart="17.26">
        <route edges="-E1 -E1.42 E2"/>
    </vehicle>
    <vehicle id="NS_car.3" type="car" depart="18.46">
        <route edges="-E3 -E0"/>
    </vehicle>
    <vehicle id="WE_car.4" type="car" depart="20.84">
        <route edges="E0 E0.40 E1"/>
    </vehicle>
    <vehicle id="EW_car.5" type="car" depart="21.58">
        <route edges="-E1 -E1.42 -E0"/>
    </vehicle>
    <vehicle id="SN_car.4" type="car" depart="22.96">
        <route edges="-E2 -E2.41 -E0"/>
    </vehicle>
    <vehicle id="NS_car.4" type="car" depart="24.61">
        <route edges="-E3 E2"/>
    </vehicle>
    <vehicle id="EW_car.6" type="car" depart="25.90">
        <route edges="-E1 -E1.42 -E0"/>
    </vehicle>
    <vehicle id="WE_car.5" type="car" depart="26.05">
        <route edges="E0 E0.40 E2"/>
    </vehicle>
    <vehicle id="SN_car.5" type="car" depart="28.71">
        <route edges="-E2 -E2.41 -E0"/>
    </vehicle>
    <vehicle id="EW_car.7" type="car" depart="30.21">
        <route edges="-E1 -E1.42 -E0"/>
    </vehicle>
    <vehicle id="NS_car.5" type="car" depart="30.77">
        <route edges="-E3 E1"/>
    </vehicle>
    <vehicle id="WE_car.6" type="car" depart="31.25">
        <route edges="E0 E0.40 E3"/>
    </vehicle>
    <vehicle id="SN_car.6" type="car" depart="34.45">
        <route edges="-E2 -E2.41 E3"/>
    </vehicle>
    <vehicle id="EW_car.8" type="car" depart="34.53">
        <route edges="-E1 -E1.42 E2"/>
    </vehicle>
    <vehicle id="WE_car.7" type="car" depart="36.46">
        <route edges="E0 E0.40 E3"/>
    </vehicle>
    <vehicle id="NS_car.6" type="car" depart="36.92">
        <route edges="-E3 E2"/>
    </vehicle>
    <vehicle id="EW_car.9" type="car" depart="38.84">
        <route edges="-E1 -E1.42 E2"/>
    </vehicle>
    <vehicle id="SN_car.7" type="car" depart="40.19">
        <route edges="-E2 -E2.41 -E0"/>
    </vehicle>
    <vehicle id="WE_car.8" type="car" depart="41.67">
        <route edges="E0 E0.40 E1"/>
    </vehicle>
    <vehicle id="NS_car.7" type="car" depart="43.07">
        <route edges="-E3 E2"/>
    </vehicle>
    <vehicle id="EW_car.10" type="car" depart="43.16">
        <route edges="-E1 -E1.42 -E0"/>
    </vehicle>
    <vehicle id="SN_car.8" type="car" depart="45.93">
        <route edges="-E2 -E2.41 E1"/>
    </vehicle>
    <vehicle id="WE_car.9" type="car" depart="46.88">
        <route edges="E0 E0.40 E1"/>
    </vehicle>
    <vehicle id="EW_car.11" type="car" depart="47.48">
        <route edges="-E1 -E1.42 E3"/>
    </vehicle>
    <vehicle id="NS_car.8" type="car" depart="49.22">
        <route edges="-E3 E1"/>
    </vehicle>
    <vehicle id="SN_car.9" type="car" depart="51.67">
        <route edges="-E2 -E2.41 -E0"/>
    </vehicle>
    <vehicle id="EW_car.12" type="car" depart="51.79">
        <route edges="-E1 -E1.42 -E0"/>
    </vehicle>
    <vehicle id="WE_car.10" type="car" depart="52.09">
        <route edges="E0 E0.40 E1"/>
    </vehicle>
    <vehicle id="NS_car.9" type="car" depart="55.38">
        <route edges="-E3 -E0"/>
    </vehicle>
    <vehicle id="EW_car.13" type="car" depart="56.11">
        <route edges="-E1 -E1.42 -E0"/>
    </vehicle>
    <vehicle id="WE_car.11" type="car" depart="57.30">
        <route edges="E0 E0.40 E1"/>
    </vehicle>
    <vehicle id="SN_car.10" type="car" depart="57.41">
        <route edges="-E2 -E2.41 E1"/>
    </vehicle>
    <vehicle id="EW_car.14" type="car" depart="60.42">
        <route edges="-E1 -E1.42 -E0"/>
    </vehicle>
    <vehicle id="NS_car.10" type="car" depart="61.53">
        <route edges="-E3 E1"/>
    </vehicle>
    <vehicle id="WE_car.12" type="car" depart="62.51">
        <route edges="E0 E0.40 E2"/>
    </vehicle>
    <vehicle id="SN_car.11" type="car" depart="63.15">
        <route edges="-E2 -E2.41 E1"/>
    </vehicle>
    <vehicle id="EW_car.15" type="car" depart="64.74">
        <route edges="-E1 -E1.42 -E0"/>
    </vehicle>
    <vehicle id="NS_car.11" type="car" depart="67.68">
        <route edges="-E3 E1"/>
    </vehicle>
    <vehicle id="WE_car.13" type="car" depart="67.72">
        <route edges="E0 E0.40 E3"/>
    </vehicle>
    <vehicle id="SN_car.12" type="car" depart="68.89">
        <route edges="-E2 -E2.41 E3"/>
    </vehicle>
    <vehicle id="EW_car.16" type="car" depart="69.06">
        <route edges="-E1 -E1.42 E2"/>
    </vehicle>
    <vehicle id="WE_car.14" type="car" depart="72.93">
        <route edges="E0 E0.40 E2"/>
    </vehicle>
    <vehicle id="EW_car.17" type="car" depart="73.37">
        <route edges="-E1 -E1.42 E2"/>
    </vehicle>
    <vehicle id="NS_car.12" type="car" depart="73.84">
        <route edges="-E3 E2"/>
    </vehicle>
    <vehicle id="SN_car.13" type="car" depart="74.63">
        <route edges="-E2 -E2.41 E1"/>
    </vehicle>
    <vehicle id="EW_car.18" type="car" depart="77.69">
        <route edges="-E1 -E1.42 E2"/>
    </vehicle>
    <vehicle id="WE_car.15" type="car" depart="78.14">
        <route edges="E0 E0.40 E2"/>
    </vehicle>
    <vehicle id="NS_car.13" type="car" depart="79.99">
        <route edges="-E3 E2"/>
    </vehicle>
    <vehicle id="SN_car.14" type="car" depart="80.37">
        <route edges="-E2 -E2.41 -E0"/>
    </vehicle>
    <vehicle id="EW_car.19" type="car" depart="82.00">
        <route edges="-E1 -E1.42 -E0"/>
    </vehicle>
    <vehicle id="WE_car.16" type="car" depart="83.34">
        <route edges="E0 E0.40 E1"/>
    </vehicle>
    <vehicle id="SN_car.15" type="car" depart="86.12">
        <route edges="-E2 -E2.41 E1"/>
    </vehicle>
    <vehicle id="NS_car.14" type="car" depart="86.14">
        <route edges="-E3 E1"/>
    </vehicle>
    <vehicle id="EW_car.20" type="car" depart="86.32">
        <route edges="-E1 -E1.42 -E0"/>
    </vehicle>
    <vehicle id="WE_car.17" type="car" depart="88.55">
        <route edges="E0 E0.40 E3"/>
    </vehicle>
    <vehicle id="EW_car.21" type="car" depart="90.64">
        <route edges="-E1 -E1.42 -E0"/>
    </vehicle>
    <vehicle id="SN_car.16" type="car" depart="91.86">
        <route edges="-E2 -E2.41 E1"/>
    </vehicle>
    <vehicle id="NS_car.15" type="car" depart="92.30">
        <route edges="-E3 E2"/>
    </vehicle>
    <vehicle id="WE_car.18" type="car" depart="93.76">
        <route edges="E0 E0.40 E2"/>
    </vehicle>
    <vehicle id="EW_car.22" type="car" depart="94.95">
        <route edges="-E1 -E1.42 -E0"/>
    </vehicle>
    <vehicle id="SN_car.17" type="car" depart="97.60">
        <route edges="-E2 -E2.41 E1"/>
    </vehicle>
    <vehicle id="NS_car.16" type="car" depart="98.45">
        <route edges="-E3 E1"/>
    </vehicle>
    <vehicle id="WE_car.19" type="car" depart="98.97">
        <route edges="E0 E0.40 E3"/>
    </vehicle>
    <vehicle id="EW_car.23" type="car" depart="99.27">
        <route edges="-E1 -E1.42 E3"/>
    </vehicle>
    <vehicle id="SN_car.18" type="car" depart="103.34">
        <route edges="-E2 -E2.41 E1"/>
    </vehicle>
    <vehicle id="EW_car.24" type="car" depart="103.58">
        <route edges="-E1 -E1.42 E3"/>
    </vehicle>
    <vehicle id="WE_car.20" type="car" depart="104.18">
        <route edges="E0 E0.40 E2"/>
    </vehicle>
    <vehicle id="NS_car.17" type="car" depart="104.60">
        <route edges="-E3 E2"/>
    </vehicle>
    <vehicle id="EW_car.25" type="car" depart="107.90">
        <route edges="-E1 -E1.42 -E0"/>
    </vehicle>
    <vehicle id="SN_car.19" type="car" depart="109.08">
        <route edges="-E2 -E2.41 E1"/>
    </vehicle>
    <vehicle id="WE_car.21" type="car" depart="109.39">
        <route edges="E0 E0.40 E1"/>
    </vehicle>
    <vehicle id="NS_car.18" type="car" depart="110.75">
        <route edges="-E3 E2"/>
    </vehicle>
    <vehicle id="EW_car.26" type="car" depart="112.22">
        <route edges="-E1 -E1.42 -E0"/>
    </vehicle>
    <vehicle id="WE_car.22" type="car" depart="114.60">
        <route edges="E0 E0.40 E3"/>
    </vehicle>
    <vehicle id="SN_car.20" type="car" depart="114.82">
        <route edges="-E2 -E2.41 -E0"/>
    </vehicle>
    <vehicle id="EW_car.27" type="car" depart="116.53">
        <route edges="-E1 -E1.42 E3"/>
    </vehicle>
    <vehicle id="NS_car.19" type="car" depart="116.91">
        <route edges="-E3 E1"/>
    </vehicle>
    <vehicle id="WE_car.23" type="car" depart="119.81">
        <route edges="E0 E0.40 E2"/>
    </vehicle>
    <vehicle id="SN_car.21" type="car" depart="120.56">
        <route edges="-E2 -E2.41 E3"/>
    </vehicle>
    <vehicle id="EW_car.28" type="car" depart="120.85">
        <route edges="-E1 -E1.42 E3"/>
    </vehicle>
    <vehicle id="NS_car.20" type="car" depart="123.06">
        <route edges="-E3 E1"/>
    </vehicle>
    <vehicle id="WE_car.24" type="car" depart="125.02">
        <route edges="E0 E0.40 E1"/>
    </vehicle>
    <vehicle id="EW_car.29" type="car" depart="125.16">
        <route edges="-E1 -E1.42 -E0"/>
    </vehicle>
    <vehicle id="SN_car.22" type="car" depart="126.30">
        <route edges="-E2 -E2.41 E1"/>
    </vehicle>
    <vehicle id="NS_car.21" type="car" depart="129.21">
        <route edges="-E3 E1"/>
    </vehicle>
    <vehicle id="EW_car.30" type="car" depart="129.48">
        <route edges="-E1 -E1.42 -E0"/>
    </vehicle>
    <vehicle id="WE_car.25" type="car" depart="130.23">
        <route edges="E0 E0.40 E1"/>
    </vehicle>
    <vehicle id="SN_car.23" type="car" depart="132.04">
        <route edges="-E2 -E2.41 -E0"/>
    </vehicle>
    <vehicle id="EW_car.31" type="car" depart="133.80">
        <route edges="-E1 -E1.42 -E0"/>
    </vehicle>
    <vehicle id="NS_car.22" type="car" depart="135.37">
        <route edges="-E3 -E0"/>
    </vehicle>
    <vehicle id="WE_car.26" type="car" depart="135.43">
        <route edges="E0 E0.40 E3"/>
    </vehicle>
    <vehicle id="SN_car.24" type="car" depart="137.78">
        <route edges="-E2 -E2.41 -E0"/>
    </vehicle>
    <vehicle id="EW_car.32" type="car" depart="138.11">
        <route edges="-E1 -E1.42 E2"/>
    </vehicle>
    <vehicle id="WE_car.27" type="car" depart="140.64">
        <route edges="E0 E0.40 E1"/>
    </vehicle>
    <vehicle id="NS_car.23" type="car" depart="141.52">
        <route edges="-E3 E2"/>
    </vehicle>
    <vehicle id="EW_car.33" type="car" depart="142.43">
        <route edges="-E1 -E1.42 E3"/>
    </vehicle>
    <vehicle id="SN_car.25" type="car" depart="143.53">
        <route edges="-E2 -E2.41 E3"/>
    </vehicle>
    <vehicle id="WE_car.28" type="car" depart="145.85">
        <route edges="E0 E0.40 E1"/>
    </vehicle>
    <vehicle id="EW_car.34" type="car" depart="146.74">
        <route edges="-E1 -E1.42 -E0"/>
    </vehicle>
    <vehicle id="NS_car.24" type="car" depart="147.67">
        <route edges="-E3 E2"/>
    </vehicle>
    <vehicle id="SN_car.26" type="car" depart="149.27">
        <route edges="-E2 -E2.41 E3"/>
    </vehicle>
    <vehicle id="EW_car.35" type="car" depart="151.06">
        <route edges="-E1 -E1.42 E2"/>
    </vehicle>
    <vehicle id="WE_car.29" type="car" depart="151.06">
        <route edges="E0 E0.40 E2"/>
    </vehicle>
    <vehicle id="NS_car.25" type="car" depart="153.83">
        <route edges="-E3 -E0"/>
    </vehicle>
    <vehicle id="SN_car.27" type="car" depart="155.01">
        <route edges="-E2 -E2.41 E3"/>
    </vehicle>
    <vehicle id="EW_car.36" type="car" depart="155.38">
        <route edges="-E1 -E1.42 E2"/>
    </vehicle>
    <vehicle id="WE_car.30" type="car" depart="156.27">
        <route edges="E0 E0.40 E3"/>
    </vehicle>
    <vehicle id="EW_car.37" type="car" depart="159.69">
        <route edges="-E1 -E1.42 -E0"/>
    </vehicle>
    <vehicle id="NS_car.26" type="car" depart="159.98">
        <route edges="-E3 E1"/>
    </vehicle>
    <vehicle id="SN_car.28" type="car" depart="160.75">
        <route edges="-E2 -E2.41 E1"/>
    </vehicle>
    <vehicle id="WE_car.31" type="car" depart="161.48">
        <route edges="E0 E0.40 E2"/>
    </vehicle>
    <vehicle id="EW_car.38" type="car" depart="164.01">
        <route edges="-E1 -E1.42 E3"/>
    </vehicle>
    <vehicle id="NS_car.27" type="car" depart="166.13">
        <route edges="-E3 -E0"/>
    </vehicle>
    <vehicle id="SN_car.29" type="car" depart="166.49">
        <route edges="-E2 -E2.41 -E0"/>
    </vehicle>
    <vehicle id="WE_car.32" type="car" depart="166.69">
        <route edges="E0 E0.40 E1"/>
    </vehicle>
    <vehicle id="EW_car.39" type="car" depart="168.32">
        <route edges="-E1 -E1.42 E2"/>
    </vehicle>
    <vehicle id="WE_car.33" type="car" depart="171.90">
        <route edges="E0 E0.40 E3"/>
    </vehicle>
    <vehicle id="SN_car.30" type="car" depart="172.23">
        <route edges="-E2 -E2.41 E1"/>
    </vehicle>
    <vehicle id="NS_car.28" type="car" depart="172.28">
        <route edges="-E3 E2"/>
    </vehicle>
    <vehicle id="EW_car.40" type="car" depart="172.64">
        <route edges="-E1 -E1.42 -E0"/>
    </vehicle>
    <vehicle id="EW_car.41" type="car" depart="176.96">
        <route edges="-E1 -E1.42 E2"/>
    </vehicle>
    <vehicle id="WE_car.34" type="car" depart="177.11">
        <route edges="E0 E0.40 E1"/>
    </vehicle>
    <vehicle id="SN_car.31" type="car" depart="177.97">
        <route edges="-E2 -E2.41 E3"/>
    </vehicle>
    <vehicle id="NS_car.29" type="car" depart="178.44">
        <route edges="-E3 -E0"/>
    </vehicle>
    <vehicle id="EW_car.42" type="car" depart="181.27">
        <route edges="-E1 -E1.42 -E0"/>
    </vehicle>
    <vehicle id="WE_car.35" type="car" depart="182.32">
        <route edges="E0 E0.40 E3"/>
    </vehicle>
    <vehicle id="SN_car.32" type="car" depart="183.71">
        <route edges="-E2 -E2.41 E1"/>
    </vehicle>
    <vehicle id="NS_car.30" type="car" depart="184.59">
        <route edges="-E3 E1"/>
    </vehicle>
    <vehicle id="EW_car.43" type="car" depart="185.59">
        <route edges="-E1 -E1.42 E3"/>
    </vehicle>
    <vehicle id="WE_car.36" type="car" depart="187.52">
        <route edges="E0 E0.40 E2"/>
    </vehicle>
    <vehicle id="SN_car.33" type="car" depart="189.45">
        <route edges="-E2 -E2.41 E1"/>
    </vehicle>
    <vehicle id="EW_car.44" type="car" depart="189.90">
        <route edges="-E1 -E1.42 -E0"/>
    </vehicle>
    <vehicle id="NS_car.31" type="car" depart="190.74">
        <route edges="-E3 -E0"/>
    </vehicle>
    <vehicle id="WE_car.37" type="car" depart="192.73">
        <route edges="E0 E0.40 E1"/>
    </vehicle>
    <vehicle id="EW_car.45" type="car" depart="194.22">
        <route edges="-E1 -E1.42 -E0"/>
    </vehicle>
    <vehicle id="SN_car.34" type="car" depart="195.19">
        <route edges="-E2 -E2.41 E3"/>
    </vehicle>
    <vehicle id="NS_car.32" type="car" depart="196.90">
        <route edges="-E3 E2"/>
    </vehicle>
    <vehicle id="WE_car.38" type="car" depart="197.94">
        <route edges="E0 E0.40 E3"/>
    </vehicle>
    <vehicle id="EW_car.46" type="car" depart="198.54">
        <route edges="-E1 -E1.42 -E0"/>
    </vehicle>
    <vehicle id="SN_car.35" type="car" depart="200.94">
        <route edges="-E2 -E2.41 E3"/>
    </vehicle>
    <vehicle id="EW_car.47" type="car" depart="202.85">
        <route edges="-E1 -E1.42 E3"/>
    </vehicle>
    <vehicle id="NS_car.33" type="car" depart="203.05">
        <route edges="-E3 E2"/>
    </vehicle>
    <vehicle id="WE_car.39" type="car" depart="203.15">
        <route edges="E0 E0.40 E2"/>
    </vehicle>
    <vehicle id="SN_car.36" type="car" depart="206.68">
        <route edges="-E2 -E2.41 E1"/>
    </vehicle>
    <vehicle id="EW_car.48" type="car" depart="207.17">
        <route edges="-E1 -E1.42 E2"/>
    </vehicle>
    <vehicle id="WE_car.40" type="car" depart="208.36">
        <route edges="E0 E0.40 E2"/>
    </vehicle>
    <vehicle id="NS_car.34" type="car" depart="209.20">
        <route edges="-E3 E2"/>
    </vehicle>
    <vehicle id="EW_car.49" type="car" depart="211.48">
        <route edges="-E1 -E1.42 E3"/>
    </vehicle>
    <vehicle id="SN_car.37" type="car" depart="212.42">
        <route edges="-E2 -E2.41 E1"/>
    </vehicle>
    <vehicle id="WE_car.41" type="car" depart="213.57">
        <route edges="E0 E0.40 E3"/>
    </vehicle>
    <vehicle id="NS_car.35" type="car" depart="215.36">
        <route edges="-E3 E2"/>
    </vehicle>
    <vehicle id="EW_car.50" type="car" depart="215.80">
        <route edges="-E1 -E1.42 E2"/>
    </vehicle>
    <vehicle id="SN_car.38" type="car" depart="218.16">
        <route edges="-E2 -E2.41 E3"/>
    </vehicle>
    <vehicle id="WE_car.42" type="car" depart="218.78">
        <route edges="E0 E0.40 E3"/>
    </vehicle>
    <vehicle id="EW_car.51" type="car" depart="220.12">
        <route edges="-E1 -E1.42 -E0"/>
    </vehicle>
    <vehicle id="NS_car.36" type="car" depart="221.51">
        <route edges="-E3 E1"/>
    </vehicle>
    <vehicle id="SN_car.39" type="car" depart="223.90">
        <route edges="-E2 -E2.41 E3"/>
    </vehicle>
    <vehicle id="WE_car.43" type="car" depart="223.99">
        <route edges="E0 E0.40 E1"/>
    </vehicle>
    <vehicle id="EW_car.52" type="car" depart="224.43">
        <route edges="-E1 -E1.42 -E0"/>
    </vehicle>
    <vehicle id="NS_car.37" type="car" depart="227.66">
        <route edges="-E3 -E0"/>
    </vehicle>
    <vehicle id="EW_car.53" type="car" depart="228.75">
        <route edges="-E1 -E1.42 E3"/>
    </vehicle>
    <vehicle id="WE_car.44" type="car" depart="229.20">
        <route edges="E0 E0.40 E1"/>
    </vehicle>
    <vehicle id="SN_car.40" type="car" depart="229.64">
        <route edges="-E2 -E2.41 -E0"/>
    </vehicle>
    <vehicle id="EW_car.54" type="car" depart="233.06">
        <route edges="-E1 -E1.42 E2"/>
    </vehicle>
    <vehicle id="NS_car.38" type="car" depart="233.81">
        <route edges="-E3 E2"/>
    </vehicle>
    <vehicle id="WE_car.45" type="car" depart="234.41">
        <route edges="E0 E0.40 E3"/>
    </vehicle>
    <vehicle id="SN_car.41" type="car" depart="235.38">
        <route edges="-E2 -E2.41 E3"/>
    </vehicle>
    <vehicle id="EW_car.55" type="car" depart="237.38">
        <route edges="-E1 -E1.42 E2"/>
    </vehicle>
    <vehicle id="WE_car.46" type="car" depart="239.61">
        <route edges="E0 E0.40 E2"/>
    </vehicle>
    <vehicle id="NS_car.39" type="car" depart="239.97">
        <route edges="-E3 E1"/>
    </vehicle>
    <vehicle id="SN_car.42" type="car" depart="241.12">
        <route edges="-E2 -E2.41 -E0"/>
    </vehicle>
    <vehicle id="EW_car.56" type="car" depart="241.70">
        <route edges="-E1 -E1.42 E2"/>
    </vehicle>
    <vehicle id="WE_car.47" type="car" depart="244.82">
        <route edges="E0 E0.40 E1"/>
    </vehicle>
    <vehicle id="EW_car.57" type="car" depart="246.01">
        <route edges="-E1 -E1.42 -E0"/>
    </vehicle>
    <vehicle id="NS_car.40" type="car" depart="246.12">
        <route edges="-E3 E2"/>
    </vehicle>
    <vehicle id="SN_car.43" type="car" depart="246.86">
        <route edges="-E2 -E2.41 E3"/>
    </vehicle>
    <vehicle id="WE_car.48" type="car" depart="250.03">
        <route edges="E0 E0.40 E1"/>
    </vehicle>
    <vehicle id="EW_car.58" type="car" depart="250.33">
        <route edges="-E1 -E1.42 E2"/>
    </vehicle>
    <vehicle id="NS_car.41" type="car" depart="252.27">
        <route edges="-E3 -E0"/>
    </vehicle>
    <vehicle id="SN_car.44" type="car" depart="252.60">
        <route edges="-E2 -E2.41 E1"/>
    </vehicle>
    <vehicle id="EW_car.59" type="car" depart="254.64">
        <route edges="-E1 -E1.42 -E0"/>
    </vehicle>
    <vehicle id="WE_car.49" type="car" depart="255.24">
        <route edges="E0 E0.40 E1"/>
    </vehicle>
    <vehicle id="SN_car.45" type="car" depart="258.35">
        <route edges="-E2 -E2.41 E3"/>
    </vehicle>
    <vehicle id="NS_car.42" type="car" depart="258.43">
        <route edges="-E3 E2"/>
    </vehicle>
    <vehicle id="EW_car.60" type="car" depart="258.96">
        <route edges="-E1 -E1.42 E3"/>
    </vehicle>
    <vehicle id="WE_car.50" type="car" depart="260.45">
        <route edges="E0 E0.40 E2"/>
    </vehicle>
    <vehicle id="EW_car.61" type="car" depart="263.28">
        <route edges="-E1 -E1.42 E2"/>
    </vehicle>
    <vehicle id="SN_car.46" type="car" depart="264.09">
        <route edges="-E2 -E2.41 E1"/>
    </vehicle>
    <vehicle id="NS_car.43" type="car" depart="264.58">
        <route edges="-E3 E2"/>
    </vehicle>
    <vehicle id="WE_car.51" type="car" depart="265.66">
        <route edges="E0 E0.40 E1"/>
    </vehicle>
    <vehicle id="EW_car.62" type="car" depart="267.59">
        <route edges="-E1 -E1.42 -E0"/>
    </vehicle>
    <vehicle id="SN_car.47" type="car" depart="269.83">
        <route edges="-E2 -E2.41 -E0"/>
    </vehicle>
    <vehicle id="NS_car.44" type="car" depart="270.73">
        <route edges="-E3 -E0"/>
    </vehicle>
    <vehicle id="WE_car.52" type="car" depart="270.87">
        <route edges="E0 E0.40 E3"/>
    </vehicle>
    <vehicle id="EW_car.63" type="car" depart="271.91">
        <route edges="-E1 -E1.42 -E0"/>
    </vehicle>
    <vehicle id="SN_car.48" type="car" depart="275.57">
        <route edges="-E2 -E2.41 E3"/>
    </vehicle>
    <vehicle id="WE_car.53" type="car" depart="276.08">
        <route edges="E0 E0.40 E2"/>
    </vehicle>
    <vehicle id="EW_car.64" type="car" depart="276.22">
        <route edges="-E1 -E1.42 E3"/>
    </vehicle>
    <vehicle id="NS_car.45" type="car" depart="276.89">
        <route edges="-E3 E1"/>
    </vehicle>
    <vehicle id="EW_car.65" type="car" depart="280.54">
        <route edges="-E1 -E1.42 E3"/>
    </vehicle>
    <vehicle id="WE_car.54" type="car" depart="281.29">
        <route edges="E0 E0.40 E2"/>
    </vehicle>
    <vehicle id="SN_car.49" type="car" depart="281.31">
        <route edges="-E2 -E2.41 E1"/>
    </vehicle>
    <vehicle id="NS_car.46" type="car" depart="283.04">
        <route edges="-E3 E1"/>
    </vehicle>
    <vehicle id="EW_car.66" type="car" depart="284.86">
        <route edges="-E1 -E1.42 -E0"/>
    </vehicle>
    <vehicle id="WE_car.55" type="car" depart="286.50">
        <route edges="E0 E0.40 E2"/>
    </vehicle>
    <vehicle id="SN_car.50" type="car" depart="287.05">
        <route edges="-E2 -E2.41 -E0"/>
    </vehicle>
    <vehicle id="EW_car.67" type="car" depart="289.17">
        <route edges="-E1 -E1.42 -E0"/>
    </vehicle>
    <vehicle id="NS_car.47" type="car" depart="289.19">
        <route edges="-E3 E2"/>
    </vehicle>
    <vehicle id="WE_car.56" type="car" depart="291.70">
        <route edges="E0 E0.40 E1"/>
    </vehicle>
    <vehicle id="SN_car.51" type="car" depart="292.79">
        <route edges="-E2 -E2.41 -E0"/>
    </vehicle>
    <vehicle id="EW_car.68" type="car" depart="293.49">
        <route edges="-E1 -E1.42 -E0"/>
    </vehicle>
    <vehicle id="NS_car.48" type="car" depart="295.34">
        <route edges="-E3 E2"/>
    </vehicle>
    <vehicle id="WE_car.57" type="car" depart="296.91">
        <route edges="E0 E0.40 E3"/>
    </vehicle>
    <vehicle id="EW_car.69" type="car" depart="297.80">
        <route edges="-E1 -E1.42 -E0"/>
    </vehicle>
    <vehicle id="SN_car.52" type="car" depart="298.53">
        <route edges="-E2 -E2.41 E3"/>
    </vehicle>
    <vehicle id="NS_car.49" type="car" depart="301.50">
        <route edges="-E3 E2"/>
    </vehicle>
    <vehicle id="EW_car.70" type="car" depart="302.12">
        <route edges="-E1 -E1.42 -E0"/>
    </vehicle>
    <vehicle id="WE_car.58" type="car" depart="302.12">
        <route edges="E0 E0.40 E1"/>
    </vehicle>
    <vehicle id="SN_car.53" type="car" depart="304.27">
        <route edges="-E2 -E2.41 E3"/>
    </vehicle>
    <vehicle id="EW_car.71" type="car" depart="306.44">
        <route edges="-E1 -E1.42 E2"/>
    </vehicle>
    <vehicle id="WE_car.59" type="car" depart="307.33">
        <route edges="E0 E0.40 E2"/>
    </vehicle>
    <vehicle id="NS_car.50" type="car" depart="307.65">
        <route edges="-E3 E2"/>
    </vehicle>
    <vehicle id="SN_car.54" type="car" depart="310.01">
        <route edges="-E2 -E2.41 -E0"/>
    </vehicle>
    <vehicle id="EW_car.72" type="car" depart="310.75">
        <route edges="-E1 -E1.42 E3"/>
    </vehicle>
    <vehicle id="WE_car.60" type="car" depart="312.54">
        <route edges="E0 E0.40 E3"/>
    </vehicle>
    <vehicle id="NS_car.51" type="car" depart="313.80">
        <route edges="-E3 -E0"/>
    </vehicle>
    <vehicle id="EW_car.73" type="car" depart="315.07">
        <route edges="-E1 -E1.42 E2"/>
    </vehicle>
    <vehicle id="SN_car.55" type="car" depart="315.76">
        <route edges="-E2 -E2.41 E1"/>
    </vehicle>
    <vehicle id="WE_car.61" type="car" depart="317.75">
        <route edges="E0 E0.40 E1"/>
    </vehicle>
    <vehicle id="EW_car.74" type="car" depart="319.38">
        <route edges="-E1 -E1.42 E2"/>
    </vehicle>
    <vehicle id="NS_car.52" type="car" depart="319.96">
        <route edges="-E3 E1"/>
    </vehicle>
    <vehicle id="SN_car.56" type="car" depart="321.50">
        <route edges="-E2 -E2.41 E3"/>
    </vehicle>
    <vehicle id="WE_car.62" type="car" depart="322.96">
        <route edges="E0 E0.40 E1"/>
    </vehicle>
    <vehicle id="EW_car.75" type="car" depart="323.70">
        <route edges="-E1 -E1.42 E2"/>
    </vehicle>
    <vehicle id="NS_car.53" type="car" depart="326.11">
        <route edges="-E3 -E0"/>
    </vehicle>
    <vehicle id="SN_car.57" type="car" depart="327.24">
        <route edges="-E2 -E2.41 E3"/>
    </vehicle>
    <vehicle id="EW_car.76" type="car" depart="328.02">
        <route edges="-E1 -E1.42 E2"/>
    </vehicle>
    <vehicle id="WE_car.63" type="car" depart="328.17">
        <route edges="E0 E0.40 E3"/>
    </vehicle>
    <vehicle id="NS_car.54" type="car" depart="332.26">
        <route edges="-E3 -E0"/>
    </vehicle>
    <vehicle id="EW_car.77" type="car" depart="332.33">
        <route edges="-E1 -E1.42 E2"/>
    </vehicle>
    <vehicle id="SN_car.58" type="car" depart="332.98">
        <route edges="-E2 -E2.41 E1"/>
    </vehicle>
    <vehicle id="WE_car.64" type="car" depart="333.38">
        <route edges="E0 E0.40 E1"/>
    </vehicle>
    <vehicle id="EW_car.78" type="car" depart="336.65">
        <route edges="-E1 -E1.42 E3"/>
    </vehicle>
    <vehicle id="NS_car.55" type="car" depart="338.42">
        <route edges="-E3 E2"/>
    </vehicle>
    <vehicle id="WE_car.65" type="car" depart="338.59">
        <route edges="E0 E0.40 E3"/>
    </vehicle>
    <vehicle id="SN_car.59" type="car" depart="338.72">
        <route edges="-E2 -E2.41 -E0"/>
    </vehicle>
    <vehicle id="EW_car.79" type="car" depart="340.96">
        <route edges="-E1 -E1.42 E2"/>
    </vehicle>
    <vehicle id="WE_car.66" type="car" depart="343.79">
        <route edges="E0 E0.40 E3"/>
    </vehicle>
    <vehicle id="SN_car.60" type="car" depart="344.46">
        <route edges="-E2 -E2.41 E3"/>
    </vehicle>
    <vehicle id="NS_car.56" type="car" depart="344.57">
        <route edges="-E3 E2"/>
    </vehicle>
    <vehicle id="EW_car.80" type="car" depart="345.28">
        <route edges="-E1 -E1.42 E2"/>
    </vehicle>
    <vehicle id="WE_car.67" type="car" depart="349.00">
        <route edges="E0 E0.40 E3"/>
    </vehicle>
    <vehicle id="EW_car.81" type="car" depart="349.60">
        <route edges="-E1 -E1.42 E2"/>
    </vehicle>
    <vehicle id="SN_car.61" type="car" depart="350.20">
        <route edges="-E2 -E2.41 E3"/>
    </vehicle>
    <vehicle id="NS_car.57" type="car" depart="350.72">
        <route edges="-E3 -E0"/>
    </vehicle>
    <vehicle id="EW_car.82" type="car" depart="353.91">