<?xml version="1.0" encoding="UTF-8"?>

<!-- generated on 2026-05-23 18:15:00 by Eclipse SUMO jtrrouter Version 1.23.1
<jtrrouterConfiguration xmlns:xsi="http://www.w3.org/2001/XMLSchema-instance" xsi:noNamespaceSchemaLocation="http://sumo.dlr.de/xsd/jtrrouterConfiguration.xsd">

    <input>
        <net-file value="demo_16.net.xml"/>
        <route-files value="demo_16.flow.xml"/>
        <turn-ratio-files value="demo_16.turn.xml"/>
    </input>

    <output>
        <output-file value="demo_16.rou.xml"/>
    </output>

    <time>
        <begin value="0"/>
        <end value="3600"/>
    </time>

</jtrrouterConfiguration>
-->

<routes xmlns:xsi="http://www.w3.org/2001/XMLSchema-instance" xsi:noNamespaceSchemaLocation="http://sumo.dlr.de/xsd/routes_file.xsd">
    <vType id="car" maxSpeed="37.00" vClass="passenger"/>
    <vehicle id="EW_car.0" type="car" depart="0.00">
        <route edges="-E1 -E1.42 E3"/>
    </vehicle>
    <vehicle id="NS_car.0" type="car" depart="0.00">
        <route edges="-E3 -E0"/>
    </vehicle>
    <vehicle id="SN_car.0" type="car" depart="0.00">
        <route edges="-E5 -E4 -E2 -E2.41 E3"/>
    </vehicle>
    <vehicle id="WE_car.0" type="car" depart="0.00">
        <route edges="E0 E0.40 E2 E4 E5"/>
    </vehicle>
    <vehicle id="EW_car.1" type="car" depart="6.16">
        <route edges="-E1 -E1.42 E2 E4 E5"/>
    </vehicle>
    <vehicle id="WE_car.1" type="car" depart="6.53">
        <route edges="E0 E0.40 E1"/>
    </vehicle>
    <vehicle id="NS_car.1" type="car" depart="7.13">
        <route edges="-E3 E2 E4 E5"/>
    </vehicle>
    <vehicle id="SN_car.1" type="car" depart="7.79">
        <route edges="-E5 -E4 -E2 -E2.41 E3"/>
    </vehicle>
    <vehicle id="EW_car.2" type="car" depart="12.33">
        <route edges="-E1 -E1.42 E3"/>
    </vehicle>
    <vehicle id="WE_car.2" type="car" depart="13.07">
        <route edges="E0 E0.40 E1"/>
    </vehicle>
    <vehicle id="NS_car.2" type="car" depart="14.26">
        <route edges="-E3 E1"/>
    </vehicle>
    <vehicle id="SN_car.2" type="car" depart="15.58">
        <route edges="-E5 -E4 -E2 -E2.41 E3"/>
    </vehicle>
    <vehicle id="EW_car.3" type="car" depart="18.49">
        <route edges="-E1 -E1.42 E3"/>
    </vehicle>
    <vehicle id="WE_car.3" type="car" depart="19.60">
        <route edges="E0 E0.40 E2 E4 E5"/>
    </vehicle>
    <vehicle id="NS_car.3" type="car" depart="21.38">
        <route edges="-E3 -E0"/>
    </vehicle>
    <vehicle id="SN_car.3" type="car" depart="23.38">
        <route edges="-E5 -E4 -E2 -E2.41 -E0"/>
    </vehicle>
    <vehicle id="EW_car.4" type="car" depart="24.66">
        <route edges="-E1 -E1.42 E2 E4 E5"/>
    </vehicle>
    <vehicle id="WE_car.4" type="car" depart="26.13">
        <route edges="E0 E0.40 E2 E4 E5"/>
    </vehicle>
    <vehicle id="NS_car.4" type="car" depart="28.51">
        <route edges="-E3 E2 E4 E5"/>
    </vehicle>
    <vehicle id="EW_car.5" type="car" depart="30.82">
        <route edges="-E1 -E1.42 E2 E4 E5"/>
    </vehicle>
    <vehicle id="SN_car.4" type="car" depart="31.17">
        <route edges="-E5 -E4 -E2 -E2.41 -E0"/>
    </vehicle>
    <vehicle id="WE_car.5" type="car" depart="32.67">
        <route edges="E0 E0.40 E1"/>
    </vehicle>
    <vehicle id="NS_car.5" type="car" depart="35.64">
        <route edges="-E3 E1"/>
    </vehicle>
    <vehicle id="EW_car.6" type="car" depart="36.98">
        <route edges="-E1 -E1.42 -E0"/>
    </vehicle>
    <vehicle id="SN_car.5" type="car" depart="38.96">
        <route edges="-E5 -E4 -E2 -E2.41 E1"/>
    </vehicle>
    <vehicle id="WE_car.6" type="car" depart="39.20">
        <route edges="E0 E0.40 E2 E4 E5"/>
    </vehicle>
    <vehicle id="NS_car.6" type="car" depart="42.77">
        <route edges="-E3 -E0"/>
    </vehicle>
    <vehicle id="EW_car.7" type="car" depart="43.15">
        <route edges="-E1 -E1.42 E3"/>
    </vehicle>
    <vehicle id="WE_car.7" type="car" depart="45.73">
        <route edges="E0 E0.40 E1"/>
    </vehicle>
    <vehicle id="SN_car.6" type="car" depart="46.75">
        <route edges="-E5 -E4 -E2 -E2.41 E3"/>
    </vehicle>
    <vehicle id="EW_car.8" type="car" depart="49.31">
        <route edges="-E1 -E1.42 E2 E4 E5"/>
    </vehicle>
    <vehicle id="NS_car.7" type="car" depart="49.90">
        <route edges="-E3 E1"/>
    </vehicle>
    <vehicle id="WE_car.8" type="car" depart="52.26">
        <route edges="E0 E0.40 E3"/>
    </vehicle>
    <vehicle id="SN_car.7" type="car" depart="54.54">
        <route edges="-E5 -E4 -E2 -E2.41 E3"/>
    </vehicle>
    <vehicle id="EW_car.9" type="car" depart="55.48">
        <route edges="-E1 -E1.42 E3"/>
    </vehicle>
    <vehicle id="NS_car.8" type="car" depart="57.02">
        <route edges="-E3 E1"/>
    </vehicle>
    <vehicle id="WE_car.9" type="car" depart="58.80">
        <route edges="E0 E0.40 E3"/>
    </vehicle>
    <vehicle id="EW_car.10" type="car" depart="61.64">
        <route edges="-E1 -E1.42 E3"/>
    </vehicle>
    <vehicle id="SN_car.8" type="car" depart="62.34">
        <route edges="-E5 -E4 -E2 -E2.41 E1"/>
    </vehicle>
    <vehicle id="NS_car.9" type="car" depart="64.15">
        <route edges="-E3 E1"/>
    </vehicle>
    <vehicle id="WE_car.10" type="car" depart="65.33">
        <route edges="E0 E0.40 E1"/>
    </vehicle>
    <vehicle id="EW_car.11" type="car" depart="67.80">
        <route edges="-E1 -E1.42 E2 E4 E5"/>
    </vehicle>
    <vehicle id="SN_car.9" type="car" depart="70.13">
        <route edges="-E5 -E4 -E2 -E2.41 -E0"/>
    </vehicle>
    <vehicle id="NS_car.10" type="car" depart="71.28">
        <route edges="-E3 E2 E4 E5"/>
    </vehicle>
    <vehicle id="WE_car.11" type="car" depart="71.86">
        <route edges="E0 E0.40 E1"/>
    </vehicle>
    <vehicle id="EW_car.12" type="car" depart="73.97">
        <route edges="-E1 -E1.42 E3"/>
    </vehicle>
    <vehicle id="SN_car.10" type="car" depart="77.92">
        <route edges="-E5 -E4 -E2 -E2.41 E1"/>
    </vehicle>
    <vehicle id="WE_car.12" type="car" depart="78.40">
        <route edges="E0 E0.40 E2 E4 E5"/>
    </vehicle>
    <vehicle id="NS_car.11" type="car" depart="78.41">
        <route edges="-E3 E1"/>
    </vehicle>
    <vehicle id="EW_car.13" type="car" depart="80.13">
        <route edges="-E1 -E1.42 E2 E4 E5"/>
    </vehicle>
    <vehicle id="WE_car.13" type="car" depart="84.93">
        <route edges="E0 E0.40 E2 E4 E5"/>
    </vehicle>
    <vehicle id="NS_car.12" type="car" depart="85.54">
        <route edges="-E3 E1"/>
    </vehicle>
    <vehicle id="SN_car.11" type="car" depart="85.71">
        <route edges="-E5 -E4 -E2 -E2.41 E1"/>
    </vehicle>
    <vehicle id="EW_car.14" type="car" depart="86.30">
        <route edges="-E1 -E1.42 -E0"/>
    </vehicle>
    <vehicle id="WE_car.14" type="car" depart="91.46">
        <route edges="E0 E0.40 E3"/>
    </vehicle>
    <vehicle id="EW_car.15" type="car" depart="92.46">
        <route edges="-E1 -E1.42 -E0"/>
    </vehicle>
    <vehicle id="NS_car.13" type="car" depart="92.66">
        <route edges="-E3 -E0"/>
    </vehicle>
    <vehicle id="SN_car.12" type="car" depart="93.50">
        <route edges="-E5 -E4 -E2 -E2.41 E1"/>
    </vehicle>
    <vehicle id="WE_car.15" type="car" depart="98.00">
        <route edges="E0 E0.40 E2 E4 E5"/>
    </vehicle>
    <vehicle id="EW_car.16" type="car" depart="98.62">
        <route edges="-E1 -E1.42 -E0"/>
    </vehicle>
    <vehicle id="NS_car.14" type="car" depart="99.79">
        <route edges="-E3 E2 E4 E5"/>
    </vehicle>
    <vehicle id="SN_car.13" type="car" depart="101.30">
        <route edges="-E5 -E4 -E2 -E2.41 E1"/>
    </vehicle>
    <vehicle id="WE_car.16" type="car" depart="104.53">
        <route edges="E0 E0.40 E1"/>
    </vehicle>
    <vehicle id="EW_car.17" type="car" depart="104.79">
        <route edges="-E1 -E1.42 -E0"/>
    </vehicle>
    <vehicle id="NS_car.15" type="car" depart="106.92">
        <route edges="-E3 E2 E4 E5"/>
    </vehicle>
    <vehicle id="SN_car.14" type="car" depart="109.09">
        <route edges="-E5 -E4 -E2 -E2.41 -E0"/>
    </vehicle>
    <vehicle id="EW_car.18" type="car" depart="110.95">
        <route edges="-E1 -E1.42 -E0"/>
    </vehicle>
    <vehicle id="WE_car.17" type="car" depart="111.06">
        <route edges="E0 E0.40 E1"/>
    </vehicle>
    <vehicle id="NS_car.16" type="car" depart="114.05">
        <route edges="-E3 -E0"/>
    </vehicle>
    <vehicle id="SN_car.15" type="car" depart="116.88">
        <route edges="-E5 -E4 -E2 -E2.41 -E0"/>
    </vehicle>
    <vehicle id="EW_car.19" type="car" depart="117.12">
        <route edges="-E1 -E1.42 E2 E4 E5"/>
    </vehicle>
    <vehicle id="WE_car.18" type="car" depart="117.59">
        <route edges="E0 E0.40 E1"/>
    </vehicle>
    <vehicle id="NS_car.17" type="car" depart="121.18">
        <route edges="-E3 E2 E4 E5"/>
    </vehicle>
    <vehicle id="EW_car.20" type="car" depart="123.28">
        <route edges="-E1 -E1.42 -E0"/>
    </vehicle>
    <vehicle id="WE_car.19" type="car" depart="124.13">
        <route edges="E0 E0.40 E1"/>
    </vehicle>
    <vehicle id="SN_car.16" type="car" depart="124.67">
        <route edges="-E5 -E4 -E2 -E2.41 -E0"/>
    </vehicle>
    <vehicle id="NS_car.18" type="car" depart="128.30">
        <route edges="-E3 E1"/>
    </vehicle>
    <vehicle id="EW_car.21" type="car" depart="129.44">
        <route edges="-E1 -E1.42 E2 E4 E5"/>
    </vehicle>
    <vehicle id="WE_car.20" type="car" depart="130.66">
        <route edges="E0 E0.40 E3"/>
    </vehicle>
    <vehicle id="SN_car.17" type="car" depart="132.46">
        <route edges="-E5 -E4 -E2 -E2.41 E1"/>
    </vehicle>
    <vehicle id="NS_car.19" type="car" depart="135.43">
        <route edges="-E3 -E0"/>
    </vehicle>
    <vehicle id="EW_car.22" type="car" depart="135.61">
        <route edges="-E1 -E1.42 -E0"/>
    </vehicle>
    <vehicle id="WE_car.21" type="car" depart="137.19">
        <route edges="E0 E0.40 E1"/>
    </vehicle>
    <vehicle id="SN_car.18" type="car" depart="140.26">
        <route edges="-E5 -E4 -E2 -E2.41 -E0"/>
    </vehicle>
    <vehicle id="EW_car.23" type="car" depart="141.77">
        <route edges="-E1 -E1.42 -E0"/>
    </vehicle>
    <vehicle id="NS_car.20" type="car" depart="142.56">
        <route edges="-E3 -E0"/>
    </vehicle>
    <vehicle id="WE_car.22" type="car" depart="143.73">
        <route edges="E0 E0.40 E1"/>
    </vehicle>
    <vehicle id="EW_car.24" type="car" depart="147.94">
        <route edges="-E1 -E1.42 -E0"/>
    </vehicle>
    <vehicle id="SN_car.19" type="car" depart="148.05">
        <route edges="-E5 -E4 -E2 -E2.41 E3"/>
    </vehicle>
    <vehicle id="NS_car.21" type="car" depart="149.69">
        <route edges="-E3 E1"/>
    </vehicle>
    <vehicle id="WE_car.23" type="car" depart="150.26">
        <route edges="E0 E0.40 E1"/>
    </vehicle>
    <vehicle id="EW_car.25" type="car" depart="154.10">
        <route edges="-E1 -E1.42 -E0"/>
    </vehicle>
    <vehicle id="SN_car.20" type="car" depart="155.84">
        <route edges="-E5 -E4 -E2 -E2.41 -E0"/>
    </vehicle>
    <vehicle id="WE_car.24" type="car" depart="156.79">
        <route edges="E0 E0.40 E1"/>
    </vehicle>
    <vehicle id="NS_car.22" type="car" depart="156.82">
        <route edges="-E3 -E0"/>
    </vehicle>
    <vehicle id="EW_car.26" type="car" depart="160.26">
        <route edges="-E1 -E1.42 E2 E4 E5"/>
    </vehicle>
    <vehicle id="WE_car.25" type="car" depart="163.33">
        <route edges="E0 E0.40 E3"/>
    </vehicle>
    <vehicle id="SN_car.21" type="car" depart="163.63">
        <route edges="-E5 -E4 -E2 -E2.41 E1"/>
    </vehicle>
    <vehicle id="NS_car.23" type="car" depart="163.94">
        <route edges="-E3 E2 E4 E5"/>
    </vehicle>
    <vehicle id="EW_car.27" type="car" depart="166.43">
        <route edges="-E1 -E1.42 -E0"/>
    </vehicle>
    <vehicle id="WE_car.26" type="car" depart="169.86">
        <route edges="E0 E0.40 E1"/>
    </vehicle>
    <vehicle id="NS_car.24" type="car" depart="171.07">
        <route edges="-E3 E2 E4 E5"/>
    </vehicle>
    <vehicle id="SN_car.22" type="car" depart="171.42">
        <route edges="-E5 -E4 -E2 -E2.41 -E0"/>
    </vehicle>
    <vehicle id="EW_car.28" type="car" depart="172.59">
        <route edges="-E1 -E1.42 E3"/>
    </vehicle>
    <vehicle id="WE_car.27" type="car" depart="176.39">
        <route edges="E0 E0.40 E3"/>
    </vehicle>
    <vehicle id="NS_car.25" type="car" depart="178.20">
        <route edges="-E3 E2 E4 E5"/>
    </vehicle>
    <vehicle id="EW_car.29" type="car" depart="178.76">
        <route edges="-E1 -E1.42 -E0"/>
    </vehicle>
    <vehicle id="SN_car.23" type="car" depart="179.22">
        <route edges="-E5 -E4 -E2 -E2.41 E3"/>
    </vehicle>
    <vehicle id="WE_car.28" type="car" depart="182.92">
        <route edges="E0 E0.40 E1"/>
    </vehicle>
    <vehicle id="EW_car.30" type="car" depart="184.92">
        <route edges="-E1 -E1.42 E2 E4 E5"/>
    </vehicle>
    <vehicle id="NS_car.26" type="car" depart="185.33">
        <route edges="-E3 E2 E4 E5"/>
    </vehicle>
    <vehicle id="SN_car.24" type="car" depart="187.01">
        <route edges="-E5 -E4 -E2 -E2.41 E3"/>
    </vehicle>
    <vehicle id="WE_car.29" type="car" depart="189.46">
        <route edges="E0 E0.40 E2 E4 E5"/>
    </vehicle>
    <vehicle id="EW_car.31" type="car" depart="191.08">
        <route edges="-E1 -E1.42 E3"/>
    </vehicle>
    <vehicle id="NS_car.27" type="car" depart="192.46">
        <route edges="-E3 E1"/>
    </vehicle>
    <vehicle id="SN_car.25" type="car" depart="194.80">
        <route edges="-E5 -E4 -E2 -E2.41 -E0"/>
    </vehicle>
    <vehicle id="WE_car.30" type="car" depart="195.99">
        <route edges="E0 E0.40 E3"/>
    </vehicle>
    <vehicle id="EW_car.32" type="car" depart="197.25">
        <route edges="-E1 -E1.42 -E0"/>
    </vehicle>
    <vehicle id="NS_car.28" type="car" depart="199.58">
        <route edges="-E3 -E0"/>
    </vehicle>
    <vehicle id="WE_car.31" type="car" depart="202.52">
        <route edges="E0 E0.40 E1"/>
    </vehicle>
    <vehicle id="SN_car.26" type="car" depart="202.59">
        <route edges="-E5 -E4 -E2 -E2.41 E3"/>
    </vehicle>
    <vehicle id="EW_car.33" type="car" depart="203.41">
        <route edges="-E1 -E1.42 E3"/>
    </vehicle>
    <vehicle id="NS_car.29" type="car" depart="206.71">
        <route edges="-E3 E2 E4 E5"/>
    </vehicle>
    <vehicle id="WE_car.32" type="car" depart="209.06">
        <route edges="E0 E0.40 E1"/>
    </vehicle>
    <vehicle id="EW_car.34" type="car" depart="209.58">
        <route edges="-E1 -E1.42 -E0"/>
    </vehicle>
    <vehicle id="SN_car.27" type="car" depart="210.38">
        <route edges="-E5 -E4 -E2 -E2.41 -E0"/>
    </vehicle>
    <vehicle id="NS_car.30" type="car" depart="213.84">
        <route edges="-E3 -E0"/>
    </vehicle>
    <vehicle id="WE_car.33" type="car" depart="215.59">
        <route edges="E0 E0.40 E3"/>
    </vehicle>
    <vehicle id="EW_car.35" type="car" depart="215.74">
        <route edges="-E1 -E1.42 E3"/>
    </vehicle>
    <vehicle id="SN_car.28" type="car" depart="218.18">
        <route edges="-E5 -E4 -E2 -E2.41 E1"/>
    </vehicle>
    <vehicle id="NS_car.31" type="car" depart="220.97">
        <route edges="-E3 -E0"/>
    </vehicle>
    <vehicle id="EW_car.36" type="car" depart="221.90">
        <route edges="-E1 -E1.42 -E0"/>
    </vehicle>
    <vehicle id="WE_car.34" type="car" depart="222.12">
        <route edges="E0 E0.40 E1"/>
    </vehicle>
    <vehicle id="SN_car.29" type="car" depart="225.97">
        <route edges="-E5 -E4 -E2 -E2.41 E3"/>
    </vehicle>
    <vehicle id="EW_car.37" type="car" depart="228.07">
        <route edges="-E1 -E1.42 E2 E4 E5"/>
    </vehicle>
    <vehicle id="NS_car.32" type="car" depart="228.10">
        <route edges="-E3 E2 E4 E5"/>
    </vehicle>
    <vehicle id="WE_car.35" type="car" depart="228.66">
        <route edges="E0 E0.40 E2 E4 E5"/>
    </vehicle>
    <vehicle id="SN_car.30" type="car" depart="233.76">
        <route edges="-E5 -E4 -E2 -E2.41 E1"/>
    </vehicle>
    <vehicle id="EW_car.38" type="car" depart="234.23">
        <route edges="-E1 -E1.42 -E0"/>
    </vehicle>
    <vehicle id="WE_car.36" type="car" depart="235.19">
        <route edges="E0 E0.40 E3"/>
    </vehicle>
    <vehicle id="NS_car.33" type="car" depart="235.22">
        <route edges="-E3 -E0"/>
    </vehicle>
    <vehicle id="EW_car.39" type="car" depart="240.40">
        <route edges="-E1 -E1.42 -E0"/>
    </vehicle>
    <vehicle id="SN_car.31" type="car" depart="241.55">
        <route edges="-E5 -E4 -E2 -E2.41 E3"/>
    </vehicle>
    <vehicle id="WE_car.37" type="car" depart="241.72">
        <route edges="E0 E0.40 E2 E4 E5"/>
    </vehicle>
    <vehicle id="NS_car.34" type="car" depart="242.35">
        <route edges="-E3 E2 E4 E5"/>
    </vehicle>
    <vehicle id="EW_car.40" type="car" depart="246.56">
        <route edges="-E1 -E1.42 E2 E4 E5"/>
    </vehicle>
    <vehicle id="WE_car.38" type="car" depart="248.25">
        <route edges="E0 E0.40 E2 E4 E5"/>
    </vehicle>
    <vehicle id="SN_car.32" type="car" depart="249.34">
        <route edges="-E5 -E4 -E2 -E2.41 E3"/>
    </vehicle>
    <vehicle id="NS_car.35" type="car" depart="249.48">
        <route edges="-E3 -E0"/>
    </vehicle>
    <vehicle id="EW_car.41" type="car" depart="252.72">
        <route edges="-E1 -E1.42 -E0"/>
    </vehicle>
    <vehicle id="WE_car.39" type="car" depart="254.79">
        <route edges="E0 E0.40 E1"/>
    </vehicle>
    <vehicle id="NS_car.36" type="car" depart="256.61">
        <route edges="-E3 E2 E4 E5"/>
    </vehicle>
    <vehicle id="SN_car.33" type="car" depart="257.14">
        <route edges="-E5 -E4 -E2 -E2.41 E3"/>
    </vehicle>
    <vehicle id="EW_car.42" type="car" depart="258.89">
        <route edges="-E1 -E1.42 E3"/>
    </vehicle>
    <vehicle id="WE_car.40" type="car" depart="261.32">
        <route edges="E0 E0.40 E3"/>
    </vehicle>
    <vehicle id="NS_car.37" type="car" depart="263.74">
        <route edges="-E3 E1"/>
    </vehicle>
    <vehicle id="SN_car.34" type="car" depart="264.93">
        <route edges="-E5 -E4 -E2 -E2.41 E1"/>
    </vehicle>
    <vehicle id="EW_car.43" type="car" depart="265.05">
        <route edges="-E1 -E1.42 E2 E4 E5"/>
    </vehicle>
    <vehicle id="WE_car.41" type="car" depart="267.85">
        <route edges="E0 E0.40 E1"/>
    </vehicle>
    <vehicle id="NS_car.38" type="car" depart="270.86">
        <route edges="-E3 E2 E4 E5"/>
    </vehicle>
    <vehicle id="EW_car.44" type="car" depart="271.22">
        <route edges="-E1 -E1.42 -E0"/>
    </vehicle>
    <vehicle id="SN_car.35" type="car" depart="272.72">
        <route edges="-E5 -E4 -E2 -E2.41 E1"/>
    </vehicle>
    <vehicle id="WE_car.42" type="car" depart="274.39">
        <route edges="E0 E0.40 E3"/>
    </vehicle>
    <vehicle id="EW_car.45" type="car" depart="277.38">
        <route edges="-E1 -E1.42 E2 E4 E5"/>
    </vehicle>
    <vehicle id="NS_car.39" type="car" depart="277.99">
        <route edges="-E3 E2 E4 E5"/>
    </vehicle>
    <vehicle id="SN_car.36" type="car" depart="280.51">
        <route edges="-E5 -E4 -E2 -E2.41 E3"/>
    </vehicle>
    <vehicle id="WE_car.43" type="car" depart="280.92">
        <route edges="E0 E0.40 E2 E4 E5"/>
    </vehicle>
    <vehicle id="EW_car.46" type="car" depart="283.54">
        <route edges="-E1 -E1.42 -E0"/>
    </vehicle>
    <vehicle id="NS_car.40" type="car" depart="285.12">
        <route edges="-E3 E1"/>
    </vehicle>
    <vehicle id="WE_car.44" type="car" depart="287.45">
        <route edges="E0 E0.40 E1"/>
    </vehicle>
    <vehicle id="SN_car.37" type="car" depart="288.30">
        <route edges="-E5 -E4 -E2 -E2.41 E3"/>
    </vehicle>
    <vehicle id="EW_car.47" type="car" depart="289.71">
        <route edges="-E1 -E1.42 -E0"/>
    </vehicle>
    <vehicle id="NS_car.41" type="car" depart="292.25">
        <route edges="-E3 E2 E4 E5"/>
    </vehicle>
    <vehicle id="WE_car.45" type="car" depart="293.99">
        <route edges="E0 E0.40 E2 E4 E5"/>
    </vehicle>
    <vehicle id="EW_car.48" type="car" depart="295.87">
        <route edges="-E1 -E1.42 E3"/>
    </vehicle>
    <vehicle id="SN_car.38" type="car" depart="296.10">
        <route edges="-E5 -E4 -E2 -E2.41 E3"/>
    </vehicle>
    <vehicle id="NS_car.42" type="car" depart="299.38">
        <route edges="-E3 E2 E4 E5"/>
    </vehicle>
    <vehicle id="WE_car.46" type="car" depart="300.52">
        <route edges="E0 E0.40 E3"/>
    </vehicle>
    <vehicle id="EW_car.49" type="car" depart="302.04">
        <route edges="-E1 -E1.42 E2 E4 E5"/>
    </vehicle>
    <vehicle id="SN_car.39" type="car" depart="303.89">
        <route edges="-E5 -E4 -E2 -E2.41 E3"/>
    </vehicle>
    <vehicle id="NS_car.43" type="car" depart="306.50">
        <route edges="-E3 -E0"/>
    </vehicle>
    <vehicle id="WE_car.47" type="car" depart="307.05">
        <route edges="E0 E0.40 E1"/>
    </vehicle>
    <vehicle id="EW_car.50" type="car" depart="308.20">
        <route edges="-E1 -E1.42 E3"/>
    </vehicle>
    <vehicle id="SN_car.40" type="car" depart="311.68">
        <route edges="-E5 -E4 -E2 -E2.41 -E0"/>
    </vehicle>
    <vehicle id="WE_car.48" type="car" depart="313.58">
        <route edges="E0 E0.40 E3"/>
    </vehicle>
    <vehicle id="NS_car.44" type="car" depart="313.63">
        <route edges="-E3 E2 E4 E5"/>
    </vehicle>
    <vehicle id="EW_car.51" type="car" depart="314.36">
        <route edges="-E1 -E1.42 -E0"/>
    </vehicle>
    <vehicle id="SN_car.41" type="car" depart="319.47">
        <route edges="-E5 -E4 -E2 -E2.41 -E0"/>
    </vehicle>
    <vehicle id="WE_car.49" type="car" depart="320.12">
        <route edges="E0 E0.40 E1"/>
    </vehicle>
    <vehicle id="EW_car.52" type="car" depart="320.53">
        <route edges="-E1 -E1.42 E2 E4 E5"/>
    </vehicle>
    <vehicle id="NS_car.45" type="car" depart="320.76">
        <route edges="-E3 -E0"/>
    </vehicle>
    <vehicle id="WE_car.50" type="car" depart="326.65">
        <route edges="E0 E0.40 E2 E4 E5"/>
    </vehicle>
    <vehicle id="EW_car.53" type="car" depart="326.69">
        <route edges="-E1 -E1.42 E3"/>
    </vehicle>
    <vehicle id="SN_car.42" type="car" depart="327.26">
        <route edges="-E5 -E4 -E2 -E2.41 -E0"/>
    </vehicle>
    <vehicle id="NS_car.46" type="car" depart="327.89">
        <route edges="-E3 E2 E4 E5"/>
    </vehicle>
    <vehicle id="EW_car.54" type="car" depart="332.86">
        <route edges="-E1 -E1.42 -E0"/>
    </vehicle>
    <vehicle id="WE_car.51" type="car" depart="333.18">
        <route edges="E0 E0.40 E2 E4 E5"/>
    </vehicle>
    <vehicle id="NS_car.47" type="car" depart="335.02">
        <route edges="-E3 E1"/>
    </vehicle>
    <vehicle id="SN_car.43" type="car" depart="335.06">
        <route edges="-E5 -E4 -E2 -E2.41 -E0"/>
    </vehicle>
    <vehicle id="EW_car.55" type="car" depart="339.02">
        <route edges="-E1 -E1.42 E2 E4 E5"/>
    </vehicle>
    <vehicle id="WE_car.52" type="car" depart="339.72">
        <route edges="E0 E0.40 E2 E4 E5"/>
    </vehicle>
    <vehicle id="NS_car.48" type="car" depart="342.14">
        <route edges="-E3 E2 E4 E5"/>
    </vehicle>
    <vehicle id="SN_car.44" type="car" depart="342.85">
        <route edges="-E5 -E4 -E2 -E2.41 E1"/>
    </vehicle>
    <vehicle id="EW_car.56" type="car" depart="345.18">
        <route edges="-E1 -E1.42 E2 E4 E5"/>
    </vehicle>
    <vehicle id="WE_car.53" type="car" depart="346.25">
        <route edges="E0 E0.40 E1"/>
    </vehicle>
    <vehicle id="NS_car.49" type="car" depart="349.27">
        <route edges="-E3 -E0"/>
    </vehicle>
    <vehicle id="SN_car.45" type="car" depart="350.64">
        <route edges="-E5 -E4 -E2 -E2.41 E1"/>
    </vehicle>
    <vehicle id="EW_car.57" type="car" depart="351.35">
        <route edges="-E1 -E1.42 E2 E4 E5"/>
    </vehicle>
    <vehicle id="WE_car.54" type="car" depart="352.78">
        <route edges="E0 E0.40 E3"/>
    </vehicle>
    <vehicle id="NS_car.50" type="car" depart="356.40">
        <route edges="-E3 E2 E4 E5"/>
    </vehicle>
    <vehicle id="EW_car.58" type="car" depart="357.51">
        <route edges="-E1 -E1.42 E3"/>
    </vehicle>
    <vehicle id="SN_car.46" type="car" depart="358.43">
        <route edges="-E5 -E4 -E2 -E2.41 E3"/>
    </vehicle>
    <vehicle id="WE_car.55" type="car" depart="359.32">
        <route edges="E0 E0.40 E3"/>
    </vehicle>
    <vehicle id="NS_car.51" type="car" depart="363.53">
        <route edges="-E3 E2 E4 E5"/>
    </vehicle>
    <vehicle id="EW_car.59" type="car" depart="363.68">
        <route edges="-E1 -E1.42 E3"/>
    </vehicle>
    <vehicle id="WE_car.56" type="car" depart="365.85">
        <route edges="E0 E0.40 E1"/>
    </vehicle>
    <vehicle id="SN_car.47" type="car" depart="366.22">
        <route edges="-E5 -E4 -E2 -E2.41 -E0"/>
    </vehicle>
    <vehicle id="EW_car.60" type="car" depart="369.84">
        <route edges="-E1 -E1.42 -E0"/>
    </vehicle>
    <vehicle id="NS_car.52" type="car" depart="370.66">
        <route edges="-E3 -E0"/>
    </vehicle>
    <vehicle id="WE_car.57" type="car" depart="372.38">
        <route edges="E0 E0.40 E3"/>
    </vehicle>
    <vehicle id="SN_car.48" type="car" depart="374.02">
        <route edges="-E5 -E4 -E2 -E2.41 E1"/>
    </vehicle>
    <vehicle id="EW_car.61" type="car" depart="376.00">
        <route edges="-E1 -E1.42 E2 E4 E5"/>
    </vehicle>
    <vehicle id="NS_car.53" type="car" depart="377.78">
        <route edges="-E3 E1"/>
    </vehicle>
    <vehicle id="WE_car.58" type="car" depart="378.91">
        <route edges="E0 E0.40 E3"/>
    </vehicle>
    <vehicle id="SN_car.49" type="car" depart="381.81">
        <route edges="-E5 -E4 -E2 -E2.41 -E0"/>
    </vehicle>
    <vehicle id="EW_car.62" type="car" depart="382.17">
        <route edges="-E1 -E1.42 E3"/>
    </vehicle>
    <vehicle id="NS_car.54" type="car" depart="384.91">
        <route edges="-E3 E2 E4 E5"/>
    </vehicle>
    <vehicle id="WE_car.59" type="car" depart="385.45">
        <route edges="E0 E0.40 E3"/>
    </vehicle>
    <vehicle id="EW_car.63" type="car" depart="388.33">
        <route edges="-E1 -E1.42 -E0"/>
    </vehicle>
    <vehicle id="SN_car.50" type="car" depart="389.60">
        <route edges="-E5 -E4 -E2 -E2.41 E3"/>
    </vehicle>
    <vehicle id="WE_car.60" type="car" depart="391.98">
        <route edges="E0 E0.40 E1"/>
    </vehicle>
    <vehicle id="NS_car.55" type="car" depart="392.04">
        <route edges="-E3 E2 E4 E5"/>
    </vehicle>
    <vehicle id="EW_car.64" type="car" depart="394.50">
        <route edges="-E1 -E1.42 E3"/>
    </vehicle>
    <vehicle id="SN_car.51" type="car" depart="397.39">
        <route edges="-E5 -E4 -E2 -E2.41 -E0"/>
    </vehicle>
    <vehicle id="WE_car.61" type="car" depart="398.51">
        <route edges="E0 E0.40 E2 E4 E5"/>
    </vehicle>
    <vehicle id="NS_car.56" type="car" depart="399.17">
        <route edges="-E3 E2 E4 E5"/>
    </vehicle>
    <vehicle id="EW_car.65" type="car" depart="400.66">
        <route edges="-E1 -E1.42 E3"/>
    </vehicle>
    <vehicle id="WE_car.62" type="car" depart="405.05">
        <route edges="E0 E0.40 E1"/>
    </vehicle>
    <vehicle id="SN_car.52" type="car" depart="405.18">
        <route edges="-E5 -E4 -E2 -E2.41 -E0"/>
    </vehicle>
    <vehicle id="NS_car.57" type="car" depart="406.30">
        <route edges="-E3 -E0"/>
    </vehicle>
    <vehicle id="EW_car.66" type="car" depart="406.82">
        <route edges="-E1 -E1.42 -E0"/>
    </vehicle>
    <vehicle id="WE_car.63" type="car" depart="411.58">
        <route edges="E0 E0.40 E2 E4 E5"/>
    </vehicle>
    <vehicle id="SN_car.53" type="car" depart="412.98">
        <route edges="-E5 -E4 -E2 -E2.41 E3"/>
    </vehicle>
    <vehicle id="EW_car.67" type="car" depart="412.99">
        <route edges="-E1 -E1.42 E3"/>
    </vehicle>
    <vehicle id="NS_car.58" type="car" depart="413.42">
        <route edges="-E3 E2 E4 E5"/>
    </vehicle>
    <vehicle id="WE_car.64" type="car" depart="418.11">
        <route edges="E0 E0.40 E3"/>
    </vehicle>
    <vehicle id="EW_car.68" type="car" depart="419.15">
        <route edges="-E1 -E1.42 -E0"/>
    </vehicle>
    <vehicle id="NS_car.59" type="car" depart="420.55">
        <route edges="-E3 E2 E4 E5"/>
    </vehicle>
    <vehicle id="SN_car.54" type="car" depart="420.77">
        <route edges="-E5 -E4 -E2 -E2.41 E3"/>
    </vehicle>
    <vehicle id="WE_car.65" type="car" depart="424.65">
        <route edges="E0 E0.40 E1"/>
    </vehicle>
    <vehicle id="EW_car.69" type="car" depart="425.32">
        <route edges="-E1 -E1.42 E2 E4 E5"/>
    </vehicle>
    <vehicle id="NS_car.60" type="car" depart="427.68">
        <route edges="-E3 E2 E4 E5"/>
    </vehicle>
    <vehicle id="SN_car.55" type="car" depart="428.56">
        <route edges="-E5 -E4 -E2 -E2.41 -E0"/>
    </vehicle>
    <vehicle id="WE_car.66" type="car" depart="431.18">
        <route edges="E0 E0.40 E1"/>
    </vehicle>
    <vehicle id="EW_car.70" type="car" depart="431.48">
        <route edges="-E1 -E1.42 E3"/>
    </vehicle>
    <vehicle id="NS_car.61" type="car" depart="434.81">
        <route edges="-E3 E2 E4 E5"/>
    </vehicle>
    <vehicle id="SN_car.56" type="car" depart="436.35">
        <route edges="-E5 -E4 -E2 -E2.41 E3"/>
    </vehicle>
    <vehicle id="EW_car.71" type="car" depart="437.64">
        <route edges="-E1 -E1.42 E2 E4 E5"/>
    </vehicle>
    <vehicle id="WE_car.67" type="car" depart="437.71">
        <route edges="E0 E0.40 E3"/>
    </vehicle>
    <vehicle id="NS_car.62" type="car" depart="441.94">
        <route edges="-E3 E1"/>
    </vehicle>
    <vehicle id="EW_car.72" type="car" depart="443.81">
        <route edges="-E1 -E1.42 -E0"/>
    </vehicle>
    <vehicle id="SN_car.57" type="car" depart="444.14">
        <route edges="-E5 -E4 -E2 -E2.41 E1"/>
    </vehicle>
    <vehicle id="WE_car.68" type="car" depart="444.24">