<?xml version="1.0" encoding="UTF-8"?>

<!-- generated on 2026-05-23 16:35:56 by Eclipse SUMO jtrrouter Version 1.23.1
<jtrrouterConfiguration xmlns:xsi="http://www.w3.org/2001/XMLSchema-instance" xsi:noNamespaceSchemaLocation="http://sumo.dlr.de/xsd/jtrrouterConfiguration.xsd">

    <input>
        <net-file value="demo_17.net.xml"/>
        <route-files value="demo_17.flow.xml"/>
        <turn-ratio-files value="demo_17.turn.xml"/>
    </input>

    <output>
        <output-file value="demo_17.rou.xml"/>
    </output>

    <time>
        <begin value="0"/>
        <end value="3600"/>
    </time>

</jtrrouterConfiguration>
-->

<routes xmlns:xsi="http://www.w3.org/2001/XMLSchema-instance" xsi:noNamespaceSchemaLocation="http://sumo.dlr.de/xsd/routes_file.xsd">
    <vType id="car" maxSpeed="37.00" vClass="passenger"/>
    <vehicle id="EW_car.0" type="car" depart="0.00">
        <route edges="-E2 E1"/>
    </vehicle>
    <vehicle id="NS_car.0" type="car" depart="0.00">
        <route edges="E0 E2"/>
    </vehicle>
    <vehicle id="SN_car.0" type="car" depart="0.00">
        <route edges="-E1 -E0"/>
    </vehicle>
    <vehicle id="NS_car.1" type="car" depart="15.45">
        <route edges="E0 E1"/>
    </vehicle>
    <vehicle id="SN_car.1" type="car" depart="17.82">
        <route edges="-E1 -E0"/>
    </vehicle>
    <vehicle id="EW_car.1" type="car" depart="19.46">
        <route edges="-E2 -E0"/>
    </vehicle>
    <vehicle id="NS_car.2" type="car" depart="30.90">
        <route edges="E0 E2"/>
    </vehicle>
    <vehicle id="SN_car.2" type="car" depart="35.64">
        <route edges="-E1 -E0"/>
    </vehicle>
    <vehicle id="EW_car.2" type="car" depart="38.92">
        <route edges="-E2 E1"/>
    </vehicle>
    <vehicle id="NS_car.3" type="car" depart="46.35">
        <route edges="E0 E2"/>
    </vehicle>
    <vehicle id="SN_car.3" type="car" depart="53.46">
        <route edges="-E1 -E0"/>
    </vehicle>
    <vehicle id="EW_car.3" type="car" depart="58.38">
        <route edges="-E2 E1"/>
    </vehicle>
    <vehicle id="NS_car.4" type="car" depart="61.80">
        <route edges="E0 E1"/>
    </vehicle>
    <vehicle id="SN_car.4" type="car" depart="71.28">
        <route edges="-E1 -E0"/>
    </vehicle>
    <vehicle id="NS_car.5" type="car" depart="77.25">
        <route edges="E0 E1"/>
    </vehicle>
    <vehicle id="EW_car.4" type="car" depart="77.84">
        <route edges="-E2 -E0"/>
    </vehicle>
    <vehicle id="SN_car.5" type="car" depart="89.11">
        <route edges="-E1 -E0"/>
    </vehicle>
    <vehicle id="NS_car.6" type="car" depart="92.70">
        <route edges="E0 E2"/>
    </vehicle>
    <vehicle id="EW_car.5" type="car" depart="97.30">
        <route edges="-E2 -E0"/>
    </vehicle>
    <vehicle id="SN_car.6" type="car" depart="106.93">
        <route edges="-E1 -E0"/>
    </vehicle>
    <vehicle id="NS_car.7" type="car" depart="108.15">
        <route edges="E0 E1"/>
    </vehicle>
    <vehicle id="EW_car.6" type="car" depart="116.75">
        <route edges="-E2 E1"/>
    </vehicle>
    <vehicle id="NS_car.8" type="car" depart="123.60">
        <route edges="E0 E1"/>
    </vehicle>
    <vehicle id="SN_car.7" type="car" depart="124.75">
        <route edges="-E1 -E0"/>
    </vehicle>
    <vehicle id="EW_car.7" type="car" depart="136.21">
        <route edges="-E2 E1"/>
    </vehicle>
    <vehicle id="NS_car.9" type="car" depart="139.05">
        <route edges="E0 E2"/>
    </vehicle>
    <vehicle id="SN_car.8" type="car" depart="142.57">
        <route edges="-E1 E2"/>
    </vehicle>
    <vehicle id="NS_car.10" type="car" depart="154.50">
        <route edges="E0 E1"/>
    </vehicle>
    <vehicle id="EW_car.8" type="car" depart="155.67">
        <route edges="-E2 E1"/>
    </vehicle>
    <vehicle id="SN_car.9" type="car" depart="160.39">
        <route edges="-E1 -E0"/>
    </vehicle>
    <vehicle id="NS_car.11" type="car" depart="169.95">
        <route edges="E0 E1"/>
    </vehicle>
    <vehicle id="EW_car.9" type="car" depart="175.13">
        <route edges="-E2 -E0"/>
    </vehicle>
    <vehicle id="SN_car.10" type="car" depart="178.21">
        <route edges="-E1 E2"/>
    </vehicle>
    <vehicle id="NS_car.12" type="car" depart="185.40">
        <route edges="E0 E1"/>
    </vehicle>
    <vehicle id="EW_car.10" type="car" depart="194.59">
        <route edges="-E2 E1"/>
    </vehicle>
    <vehicle id="SN_car.11" type="car" depart="196.03">
        <route edges="-E1 -E0"/>
    </vehicle>
    <vehicle id="NS_car.13" type="car" depart="200.85">
        <route edges="E0 E1"/>
    </vehicle>
    <vehicle id="SN_car.12" type="car" depart="213.85">
        <route edges="-E1 -E0"/>
    </vehicle>
    <vehicle id="EW_car.11" type="car" depart="214.05">
        <route edges="-E2 -E0"/>
    </vehicle>
    <vehicle id="NS_car.14" type="car" depart="216.30">
        <route edges="E0 E1"/>
    </vehicle>
    <vehicle id="SN_car.13" type="car" depart="231.67">
        <route edges="-E1 -E0"/>
    </vehicle>
    <vehicle id="NS_car.15" type="car" depart="231.75">
        <route edges="E0 E2"/>
    </vehicle>
    <vehicle id="EW_car.12" type="car" depart="233.51">
        <route edges="-E2 -E0"/>
    </vehicle>
    <vehicle id="NS_car.16" type="car" depart="247.20">
        <route edges="E0 E1"/>
    </vehicle>
    <vehicle id="SN_car.14" type="car" depart="249.49">
        <route edges="-E1 -E0"/>
    </vehicle>
    <vehicle id="EW_car.13" type="car" depart="252.97">
        <route edges="-E2 E1"/>
    </vehicle>
    <vehicle id="NS_car.17" type="car" depart="262.65">
        <route edges="E0 E1"/>
    </vehicle>
    <vehicle id="SN_car.15" type="car" depart="267.32">
        <route edges="-E1 E2"/>
    </vehicle>
    <vehicle id="EW_car.14" type="car" depart="272.43">
        <route edges="-E2 -E0"/>
    </vehicle>
    <vehicle id="NS_car.18" type="car" depart="278.10">
        <route edges="E0 E1"/>
    </vehicle>
    <vehicle id="SN_car.16" type="car" depart="285.14">
        <route edges="-E1 E2"/>
    </vehicle>
    <vehicle id="EW_car.15" type="car" depart="291.89">
        <route edges="-E2 E1"/>
    </vehicle>
    <vehicle id="NS_car.19" type="car" depart="293.55">
        <route edges="E0 E1"/>
    </vehicle>
    <vehicle id="SN_car.17" type="car" depart="302.96">
        <route edges="-E1 E2"/>
    </vehicle>
    <vehicle id="NS_car.20" type="car" depart="309.00">
        <route edges="E0 E2"/>
    </vehicle>
    <vehicle id="EW_car.16" type="car" depart="311.34">
        <route edges="-E2 -E0"/>
    </vehicle>
    <vehicle id="SN_car.18" type="car" depart="320.78">
        <route edges="-E1 -E0"/>
    </vehicle>
    <vehicle id="NS_car.21" type="car" depart="324.45">
        <route edges="E0 E1"/>
    </vehicle>
    <vehicle id="EW_car.17" type="car" depart="330.80">
        <route edges="-E2 -E0"/>
    </vehicle>
    <vehicle id="SN_car.19" type="car" depart="338.60">
        <route edges="-E1 E2"/>
    </vehicle>
    <vehicle id="NS_car.22" type="car" depart="339.90">
        <route edges="E0 E1"/>
    </vehicle>
    <vehicle id="EW_car.18" type="car" depart="350.26">
        <route edges="-E2 E1"/>
    </vehicle>
    <vehicle id="NS_car.23" type="car" depart="355.35">
        <route edges="E0 E1"/>
    </vehicle>
    <vehicle id="SN_car.20" type="car" depart="356.42">
        <route edges="-E1 -E0"/>
    </vehicle>
    <vehicle id="EW_car.19" type="car" depart="369.72">
        <route edges="-E2 -E0"/>
    </vehicle>
    <vehicle id="NS_car.24" type="car" depart="370.80">
        <route edges="E0 E1"/>
    </vehicle>
    <vehicle id="SN_car.21" type="car" depart="374.24">
        <route edges="-E1 E2"/>
    </vehicle>
    <vehicle id="NS_car.25" type="car" depart="386.25">
        <route edges="E0 E1"/>
    </vehicle>
    <vehicle id="EW_car.20" type="car" depart="389.18">
        <route edges="-E2 -E0"/>
    </vehicle>
    <vehicle id="SN_car.22" type="car" depart="392.06">
        <route edges="-E1 E2"/>
    </vehicle>
    <vehicle id="NS_car.26" type="car" depart="401.70">
        <route edges="E0 E1"/>
    </vehicle>
    <vehicle id="EW_car.21" type="car" depart="408.64">
        <route edges="-E2 -E0"/>
    </vehicle>
    <vehicle id="SN_car.23" type="car" depart="409.88">
        <route edges="-E1 -E0"/>
    </vehicle>
    <vehicle id="NS_car.27" type="car" depart="417.15">
        <route edges="E0 E1"/>
    </vehicle>
    <vehicle id="SN_car.24" type="car" depart="427.70">
        <route edges="-E1 -E0"/>
    </vehicle>
    <vehicle id="EW_car.22" type="car" depart="428.10">
        <route edges="-E2 -E0"/>
    </vehicle>
    <vehicle id="NS_car.28" type="car" depart="432.60">
        <route edges="E0 E1"/>
    </vehicle>
    <vehicle id="SN_car.25" type="car" depart="445.53">
        <route edges="-E1 -E0"/>
    </vehicle>
    <vehicle id="EW_car.23" type="car" depart="447.56">
        <route edges="-E2 E1"/>
    </vehicle>
    <vehicle id="NS_car.29" type="car" depart="448.05">
        <route edges="E0 E1"/>
    </vehicle>
    <vehicle id="SN_car.26" type="car" depart="463.35">
        <route edges="-E1 -E0"/>
    </vehicle>
    <vehicle id="NS_car.30" type="car" depart="463.50">
        <route edges="E0 E1"/>
    </vehicle>
    <vehicle id="EW_car.24" type="car" depart="467.02">
        <route edges="-E2 E1"/>
    </vehicle>
    <vehicle id="NS_car.31" type="car" depart="478.95">
        <route edges="E0 E1"/>
    </vehicle>
    <vehicle id="SN_car.27" type="car" depart="481.17">
        <route edges="-E1 -E0"/>
    </vehicle>
    <vehicle id="EW_car.25" type="car" depart="486.48">
        <route edges="-E2 -E0"/>
    </vehicle>
    <vehicle id="NS_car.32" type="car" depart="494.40">
        <route edges="E0 E1"/>
    </vehicle>
    <vehicle id="SN_car.28" type="car" depart="498.99">
        <route edges="-E1 E2"/>
    </vehicle>
    <vehicle id="EW_car.26" type="car" depart="505.93">
        <route edges="-E2 E1"/>
    </vehicle>
    <vehicle id="NS_car.33" type="car" depart="509.85">
        <route edges="E0 E1"/>
    </vehicle>
    <vehicle id="SN_car.29" type="car" depart="516.81">
        <route edges="-E1 -E0"/>
    </vehicle>
    <vehicle id="NS_car.34" type="car" depart="525.30">
        <route edges="E0 E2"/>
    </vehicle>
    <vehicle id="EW_car.27" type="car" depart="525.39">
        <route edges="-E2 -E0"/>
    </vehicle>
    <vehicle id="SN_car.30" type="car" depart="534.63">
        <route edges="-E1 -E0"/>
    </vehicle>
    <vehicle id="NS_car.35" type="car" depart="540.75">
        <route edges="E0 E1"/>
    </vehicle>
    <vehicle id="EW_car.28" type="car" depart="544.85">
        <route edges="-E2 E1"/>
    </vehicle>
    <vehicle id="SN_car.31" type="car" depart="552.45">
        <route edges="-E1 -E0"/>
    </vehicle>
    <vehicle id="NS_car.36" type="car" depart="556.20">
        <route edges="E0 E2"/>
    </vehicle>
    <vehicle id="EW_car.29" type="car" depart="564.31">
        <route edges="-E2 -E0"/>
    </vehicle>
    <vehicle id="SN_car.32" type="car" depart="570.27">
        <route edges="-E1 -E0"/>
    </vehicle>
    <vehicle id="NS_car.37" type="car" depart="571.65">
        <route edges="E0 E2"/>
    </vehicle>
    <vehicle id="EW_car.30" type="car" depart="583.77">
        <route edges="-E2 -E0"/>
    </vehicle>
    <vehicle id="NS_car.38" type="car" depart="587.10">
        <route edges="E0 E2"/>
    </vehicle>
    <vehicle id="SN_car.33" type="car" depart="588.09">
        <route edges="-E1 -E0"/>
    </vehicle>
    <vehicle id="NS_car.39" type="car" depart="602.55">
        <route edges="E0 E2"/>
    </vehicle>
    <vehicle id="EW_car.31" type="car" depart="603.23">
        <route edges="-E2 -E0"/>
    </vehicle>
    <vehicle id="SN_car.34" type="car" depart="605.91">
        <route edges="-E1 -E0"/>
    </vehicle>
    <vehicle id="NS_car.40" type="car" depart="618.00">
        <route edges="E0 E1"/>
    </vehicle>
    <vehicle id="EW_car.32" type="car" depart="622.69">
        <route edges="-E2 E1"/>
    </vehicle>
    <vehicle id="SN_car.35" type="car" depart="623.74">
        <route edges="-E1 -E0"/>
    </vehicle>
    <vehicle id="NS_car.41" type="car" depart="633.45">
        <route edges="E0 E1"/>
    </vehicle>
    <vehicle id="SN_car.36" type="car" depart="641.56">
        <route edges="-E1 -E0"/>
    </vehicle>
    <vehicle id="EW_car.33" type="car" depart="642.15">
        <route edges="-E2 E1"/>
    </vehicle>
    <vehicle id="NS_car.42" type="car" depart="648.90">
        <route edges="E0 E1"/>
    </vehicle>
    <vehicle id="SN_car.37" type="car" depart="659.38">
        <route edges="-E1 E2"/>
    </vehicle>
    <vehicle id="EW_car.34" type="car" depart="661.61">
        <route edges="-E2 -E0"/>
    </vehicle>
    <vehicle id="NS_car.43" type="car" depart="664.35">
        <route edges="E0 E2"/>
    </vehicle>
    <vehicle id="SN_car.38" type="car" depart="677.20">
        <route edges="-E1 -E0"/>
    </vehicle>
    <vehicle id="NS_car.44" type="car" depart="679.80">
        <route edges="E0 E2"/>
    </vehicle>
    <vehicle id="EW_car.35" type="car" depart="681.07">
        <route edges="-E2 -E0"/>
    </vehicle>
    <vehicle id="SN_car.39" type="car" depart="695.02">
        <route edges="-E1 -E0"/>
    </vehicle>
    <vehicle id="NS_car.45" type="car" depart="695.25">
        <route edges="E0 E1"/>
    </vehicle>
    <vehicle id="EW_car.36" type="car" depart="700.52">
        <route edges="-E2 -E0"/>
    </vehicle>
    <vehicle id="NS_car.46" type="car" depart="710.70">
        <route edges="E0 E1"/>
    </vehicle>
    <vehicle id="SN_car.40" type="car" depart="712.84">
        <route edges="-E1 E2"/>
    </vehicle>
    <vehicle id="EW_car.37" type="car" depart="719.98">
        <route edges="-E2 E1"/>
    </vehicle>
    <vehicle id="NS_car.47" type="car" depart="726.15">
        <route edges="E0 E1"/>
    </vehicle>
    <vehicle id="SN_car.41" type="car" depart="730.66">
        <route edges="-E1 E2"/>
    </vehicle>
    <vehicle id="EW_car.38" type="car" depart="739.44">
        <route edges="-E2 -E0"/>
    </vehicle>
    <vehicle id="NS_car.48" type="car" depart="741.60">
        <route edges="E0 E1"/>
    </vehicle>
    <vehicle id="SN_car.42" type="car" depart="748.48">
        <route edges="-E1 -E0"/>
    </vehicle>
    <vehicle id="NS_car.49" type="car" depart="757.05">
        <route edges="E0 E1"/>
    </vehicle>
    <vehicle id="EW_car.39" type="car" depart="758.90">
        <route edges="-E2 -E0"/>
    </vehicle>
    <vehicle id="SN_car.43" type="car" depart="766.30">
        <route edges="-E1 -E0"/>
    </vehicle>
    <vehicle id="NS_car.50" type="car" depart="772.50">
        <route edges="E0 E1"/>
    </vehicle>
    <vehicle id="EW_car.40" type="car" depart="778.36">
        <route edges="-E2 E1"/>
    </vehicle>
    <vehicle id="SN_car.44" type="car" depart="784.12">
        <route edges="-E1 -E0"/>
    </vehicle>
    <vehicle id="NS_car.51" type="car" depart="787.95">
        <route edges="E0 E1"/>
    </vehicle>
    <vehicle id="EW_car.41" type="car" depart="797.82">
        <route edges="-E2 E1"/>
    </vehicle>
    <vehicle id="SN_car.45" type="car" depart="801.95">
        <route edges="-E1 -E0"/>
    </vehicle>
    <vehicle id="NS_car.52" type="car" depart="803.40">
        <route edges="E0 E2"/>
    </vehicle>
    <vehicle id="EW_car.42" type="car" depart="817.28">
        <route edges="-E2 E1"/>
    </vehicle>
    <vehicle id="NS_car.53" type="car" depart="818.85">
        <route edges="E0 E1"/>
    </vehicle>
    <vehicle id="SN_car.46" type="car" depart="819.77">
        <route edges="-E1 -E0"/>
    </vehicle>
    <vehicle id="NS_car.54" type="car" depart="834.30">
        <route edges="E0 E2"/>
    </vehicle>
    <vehicle id="EW_car.43" type="car" depart="836.74">
        <route edges="-E2 E1"/>
    </vehicle>
    <vehicle id="SN_car.47" type="car" depart="837.59">
        <route edges="-E1 -E0"/>
    </vehicle>
    <vehicle id="NS_car.55" type="car" depart="849.75">
        <route edges="E0 E2"/>
    </vehicle>
    <vehicle id="SN_car.48" type="car" depart="855.41">
        <route edges="-E1 -E0"/>
    </vehicle>
    <vehicle id="EW_car.44" type="car" depart="856.20">
        <route edges="-E2 -E0"/>
    </vehicle>
    <vehicle id="NS_car.56" type="car" depart="865.20">
        <route edges="E0 E2"/>
    </vehicle>
    <vehicle id="SN_car.49" type="car" depart="873.23">
        <route edges="-E1 -E0"/>
    </vehicle>
    <vehicle id="EW_car.45" type="car" depart="875.66">
        <route edges="-E2 -E0"/>
    </vehicle>
    <vehicle id="NS_car.57" type="car" depart="880.65">
        <route edges="E0 E1"/>
    </vehicle>
    <vehicle id="SN_car.50" type="car" depart="891.05">
        <route edges="-E1 -E0"/>
    </vehicle>
    <vehicle id="EW_car.46" type="car" depart="895.11">
        <route edges="-E2 E1"/>
    </vehicle>
    <vehicle id="NS_car.58" type="car" depart="896.10">
        <route edges="E0 E1"/>
    </vehicle>
    <vehicle id="SN_car.51" type="car" depart="908.87">
        <route edges="-E1 -E0"/>
    </vehicle>
    <vehicle id="NS_car.59" type="car" depart="911.55">
        <route edges="E0 E2"/>
    </vehicle>
    <vehicle id="EW_car.47" type="car" depart="914.57">
        <route edges="-E2 -E0"/>
    </vehicle>
    <vehicle id="SN_car.52" type="car" depart="926.69">
        <route edges="-E1 -E0"/>
    </vehicle>
    <vehicle id="NS_car.60" type="car" depart="927.00">
        <route edges="E0 E2"/>
    </vehicle>
    <vehicle id="EW_car.48" type="car" depart="934.03">
        <route edges="-E2 E1"/>
    </vehicle>
    <vehicle id="NS_car.61" type="car" depart="942.45">
        <route edges="E0 E1"/>
    </vehicle>
    <vehicle id="SN_car.53" type="car" depart="944.51">
        <route edges="-E1 E2"/>
    </vehicle>
    <vehicle id="EW_car.49" type="car" depart="953.49">
        <route edges="-E2 -E0"/>
    </vehicle>
    <vehicle id="NS_car.62" type="car" depart="957.90">
        <route edges="E0 E2"/>
    </vehicle>
    <vehicle id="SN_car.54" type="car" depart="962.33">
        <route edges="-E1 E2"/>
    </vehicle>
    <vehicle id="EW_car.50" type="car" depart="972.95">
        <route edges="-E2 -E0"/>
    </vehicle>
    <vehicle id="NS_car.63" type="car" depart="973.35">
        <route edges="E0 E2"/>
    </vehicle>
    <vehicle id="SN_car.55" type="car" depart="980.16">
        <route edges="-E1 -E0"/>
    </vehicle>
    <vehicle id="NS_car.64" type="car" depart="988.80">
        <route edges="E0 E1"/>
    </vehicle>
    <vehicle id="EW_car.51" type="car" depart="992.41">
        <route edges="-E2 -E0"/>
    </vehicle>
    <vehicle id="SN_car.56" type="car" depart="997.98">
        <route edges="-E1 -E0"/>
    </vehicle>
    <vehicle id="NS_car.65" type="car" depart="1004.25">
        <route edges="E0 E1"/>
    </vehicle>
    <vehicle id="EW_car.52" type="car" depart="1011.87">
        <route edges="-E2 E1"/>
    </vehicle>
    <vehicle id="SN_car.57" type="car" depart="1015.80">
        <route edges="-E1 -E0"/>
    </vehicle>
    <vehicle id="NS_car.66" type="car" depart="1019.70">
        <route edges="E0 E1"/>
    </vehicle>
    <vehicle id="EW_car.53" type="car" depart="1031.33">
        <route edges="-E2 E1"/>
    </vehicle>
    <vehicle id="SN_car.58" type="car" depart="1033.62">
        <route edges="-E1 -E0"/>
    </vehicle>
    <vehicle id="NS_car.67" type="car" depart="1035.15">
        <route edges="E0 E1"/>
    </vehicle>
    <vehicle id="NS_car.68" type="car" depart="1050.60">
        <route edges="E0 E1"/>
    </vehicle>
    <vehicle id="EW_car.54" type="car" depart="1050.79">
        <route edges="-E2 E1"/>
    </vehicle>
    <vehicle id="SN_car.59" type="car" depart="1051.44">
        <route edges="-E1 -E0"/>
    </vehicle>
    <vehicle id="NS_car.69" type="car" depart="1066.05">
        <route edges="E0 E1"/>
    </vehicle>
    <vehicle id="SN_car.60" type="car" depart="1069.26">
        <route edges="-E1 -E0"/>
    </vehicle>
    <vehicle id="EW_car.55" type="car" depart="1070.25">
        <route edges="-E2 -E0"/>
    </vehicle>
    <vehicle id="NS_car.70" type="car" depart="1081.50">
        <route edges="E0 E1"/>
    </vehicle>
    <vehicle id="SN_car.61" type="car" depart="1087.08">
        <route edges="-E1 E2"/>
    </vehicle>
    <vehicle id="EW_car.56" type="car" depart="1089.70">
        <route edges="-E2 -E0"/>
    </vehicle>
    <vehicle id="NS_car.71" type="car" depart="1096.95">
        <route edges="E0 E1"/>
    </vehicle>
    <vehicle id="SN_car.62" type="car" depart="1104.90">
        <route edges="-E1 E2"/>
    </vehicle>
    <vehicle id="EW_car.57" type="car" depart="1109.16">
        <route edges="-E2 -E0"/>
    </vehicle>
    <vehicle id="NS_car.72" type="car" depart="1112.40">
        <route edges="E0 E1"/>
    </vehicle>
    <vehicle id="SN_car.63" type="car" depart="1122.72">
        <route edges="-E1 -E0"/>
    </vehicle>
    <vehicle id="NS_car.73" type="car" depart="1127.85">
        <route edges="E0 E2"/>
    </vehicle>
    <vehicle id="EW_car.58" type="car" depart="1128.62">
        <route edges="-E2 -E0"/>
    </vehicle>
    <vehicle id="SN_car.64" type="car" depart="1140.54">
        <route edges="-E1 E2"/>
    </vehicle>
    <vehicle id="NS_car.74" type="car" depart="1143.30">
        <route edges="E0 E1"/>
    </vehicle>
    <vehicle id="EW_car.59" type="car" depart="1148.08">
        <route edges="-E2 E1"/>
    </vehicle>
    <vehicle id="SN_car.65" type="car" depart="1158.37">
        <route edges="-E1 -E0"/>
    </vehicle>
    <vehicle id="NS_car.75" type="car" depart="1158.75">
        <route edges="E0 E1"/>
    </vehicle>
    <vehicle id="EW_car.60" type="car" depart="1167.54">
        <route edges="-E2 E1"/>
    </vehicle>
    <vehicle id="NS_car.76" type="car" depart="1174.20">
        <route edges="E0 E1"/>
    </vehicle>
    <vehicle id="SN_car.66" type="car" depart="1176.19">
        <route edges="-E1 E2"/>
    </vehicle>
    <vehicle id="EW_car.61" type="car" depart="1187.00">
        <route edges="-E2 E1"/>
    </vehicle>
    <vehicle id="NS_car.77" type="car" depart="1189.65">
        <route edges="E0 E1"/>
    </vehicle>
    <vehicle id="SN_car.67" type="car" depart="1194.01">
        <route edges="-E1 -E0"/>
    </vehicle>
    <vehicle id="NS_car.78" type="car" depart="1205.10">
        <route edges="E0 E1"/>
    </vehicle>
    <vehicle id="EW_car.62" type="car" depart="1206.46">
        <route edges="-E2 -E0"/>
    </vehicle>
    <vehicle id="SN_car.68" type="car" depart="1211.83">
        <route edges="-E1 -E0"/>
    </vehicle>
    <vehicle id="NS_car.79" type="car" depart="1220.55">
        <route edges="E0 E1"/>
    </vehicle>
    <vehicle id="EW_car.63" type="car" depart="1225.92">
        <route edges="-E2 -E0"/>
    </vehicle>
    <vehicle id="SN_car.69" type="car" depart="1229.65">
        <route edges="-E1 E2"/>
    </vehicle>
    <vehicle id="NS_car.80" type="car" depart="1236.00">
        <route edges="E0 E2"/>
    </vehicle>
    <vehicle id="EW_car.64" type="car" depart="1245.38">
        <route edges="-E2 E1"/>
    </vehicle>
    <vehicle id="SN_car.70" type="car" depart="1247.47">
        <route edges="-E1 -E0"/>
    </vehicle>
    <vehicle id="NS_car.81" type="car" depart="1251.45">
        <route edges="E0 E2"/>
    </vehicle>
    <vehicle id="EW_car.65" type="car" depart="1264.84">
        <route edges="-E2 -E0"/>
    </vehicle>
    <vehicle id="SN_car.71" type="car" depart="1265.29">
        <route edges="-E1 -E0"/>
    </vehicle>
    <vehicle id="NS_car.82" type="car" depart="1266.90">
        <route edges="E0 E1"/>
    </vehicle>
    <vehicle id="NS_car.83" type="car" depart="1282.35">
        <route edges="E0 E1"/>
    </vehicle>
    <vehicle id="SN_car.72" type="car" depart="1283.11">
        <route edges="-E1 -E0"/>
    </vehicle>
    <vehicle id="EW_car.66" type="car" depart="1284.29">
        <route edges="-E2 -E0"/>
    </vehicle>
    <vehicle id="NS_car.84" type="car" depart="1297.80">
        <route edges="E0 E1"/>
    </vehicle>
    <vehicle id="SN_car.73" type="car" depart="1300.93">
        <route edges="-E1 E2"/>
    </vehicle>
    <vehicle id="EW_car.67" type="car" depart="1303.75">
        <route edges="-E2 E1"/>
    </vehicle>
    <vehicle id="NS_car.85" type="car" depart="1313.25">
        <route edges="E0 E1"/>
    </vehicle>
    <vehicle id="SN_car.74" type="car" depart="1318.75">
        <route edges="-E1 E2"/>
    </vehicle>
    <vehicle id="EW_car.68" type="car" depart="1323.21">
        <route edges="-E2 -E0"/>
    </vehicle>
    <vehicle id="NS_car.86" type="car" depart="1328.70">
        <route edges="E0 E1"/>
    </vehicle>
    <vehicle id="SN_car.75" type="car" depart="1336.58">
        <route edges="-E1 -E0"/>
    </vehicle>
    <vehicle id="EW_car.69" type="car" depart="1342.67">
        <route edges="-E2 -E0"/>
    </vehicle>
    <vehicle id="NS_car.87" type="car" depart="1344.15">
        <route edges="E0 E1"/>
    </vehicle>
    <vehicle id="SN_car.76" type="car" depart="1354.40">
        <route edges="-E1 -E0"/>
    </vehicle>
    <vehicle id="NS_car.88" type="car" depart="1359.60">
        <route edges="E0 E2"/>
    </vehicle>
    <vehicle id="EW_car.70" type="car" depart="1362.13">
        <route edges="-E2 E1"/>
    </vehicle>
    <vehicle id="SN_car.77" type="car" depart="1372.22">
        <route edges="-E1 -E0"/>
    </vehicle>
    <vehicle id="NS_car.89" type="car" depart="1375.05">
        <route edges="E0 E2"/>
    </vehicle>
    <vehicle id="EW_car.71" type="car" depart="1381.59">
        <route edges="-E2 -E0"/>
    </vehicle>
    <vehicle id="SN_car.78" type="car" depart="1390.04">
        <route edges="-E1 -E0"/>
    </vehicle>
    <vehicle id="NS_car.90" type="car" depart="1390.50">
        <route edges="E0 E1"/>
    </vehicle>
    <vehicle id="EW_car.72" type="car" depart="1401.05">
        <route edges="-E2 E1"/>
    </vehicle>
    <vehicle id="NS_car.91" type="car" depart="1405.95">
        <route edges="E0 E1"/>
    </vehicle>
    <vehicle id="SN_car.79" type="car" depart="1407.86">
        <route edges="-E1 -E0"/>
    </vehicle>
    <vehicle id="EW_car.73" type="car" depart="1420.51">
        <route edges="-E2 -E0"/>
    </vehicle>
    <vehicle id="NS_car.92" type="car" depart="1421.40">
        <route edges="E0 E2"/>
    </vehicle>
    <vehicle id="SN_car.80" type="car" depart="1425.68">
        <route edges="-E1 -E0"/>
    </vehicle>
    <vehicle id="NS_car.93" type="car" depart="1436.85">
        <route edges="E0 E1"/>
    </vehicle>
    <vehicle id="EW_car.74" type="car" depart="1439.97">
        <route edges="-E2 -E0"/>
    </vehicle>
    <vehicle id="SN_car.81" type="car" depart="1443.50">
        <route edges="-E1 -E0"/>
    </vehicle>
    <vehicle id="NS_car.94" type="car" depart="1452.30">
        <route edges="E0 E2"/>
    </vehicle>
    <vehicle id="EW_car.75" type="car" depart="1459.43">
        <route edges="-E2 E1"/>
    </vehicle>
    <vehicle id="SN_car.82" type="car" depart="1461.32">
        <route edges="-E1 -E0"/>
    </vehicle>
    <vehicle id="NS_car.95" type="car" depart="1467.75">
        <route edges="E0 E1"/>
    </vehicle>
    <vehicle id="EW_car.76" type="car" depart="1478.88">
        <route edges="-E2 -E0"/>
    </vehicle>
    <vehicle id="SN_car.83" type="car" depart="1479.14">
        <route edges="-E1 E2"/>
    </vehicle>
    <vehicle id="NS_car.96" type="car" depart="1483.20">
        <route edges="E0 E2"/>
    </vehicle>
    <vehicle id="SN_car.84" type="car" depart="1496.96">
        <route edges="-E1 -E0"/>
    </vehicle>
    <vehicle id="EW_car.77" type="car" depart="1498.34">
        <route edges="-E2 -E0"/>
    </vehicle>
    <vehicle id="NS_car.97" type="car" depart="1498.65">
        <route edges="E0 E1"/>
    </vehicle>
    <vehicle id="NS_car.98" type="car" depart="1514.10">
        <route edges="E0 E2"/>
    </vehicle>
    <vehicle id="SN_car.85" type="car" depart="1514.79">
        <route edges="-E1 -E0"/>
    </vehicle>
    <vehicle id="EW_car.78" type="car" depart="1517.80">
        <route edges="-E2 -E0"/>
    </vehicle>
    <vehicle id="NS_car.99" type="car" depart="1529.55">
        <route edges="E0 E1"/>
    </vehicle>
    <vehicle id="SN_car.86" type="car" depart="1532.61">
        <route edges="-E1 -E0"/>
    </vehicle>
    <vehicle id="EW_car.79" type="car" depart="1537.26">
        <route edges="-E2 E1"/>
    </vehicle>
    <vehicle id="NS_car.100" type="car" depart="1545.00">
        <route edges="E0 E1"/>
    </vehicle>
    <vehicle id="SN_car.87" type="car" depart="1550.43">
        <route edges="-E1 E2"/>
    </vehicle>
    <vehicle id="EW_car.80" type="car" depart="1556.72">
        <route edges="-E2 E1"/>
    </vehicle>
    <vehicle id="NS_car.101" type="car" depart="1560.45">
        <route edges="E0 E1"/>
    </vehicle>
    <vehicle id="SN_car.88" type="car" depart="1568.25">
        <route edges="-E1 -E0"/>
    </vehicle>
    <vehicle id="NS_car.102" type="car" depart="1575.90">
        <route edges="E0 E2"/>
    </vehicle>
    <vehicle id="EW_car.81" type="car" depart="1576.18">
        <route edges="-E2 E1"/>
    </vehicle>
    <vehicle id="SN_car.89" type="car" depart="1586.07">
        <route edges="-E1 -E0"/>
    </vehicle>
    <vehicle id="NS_car.103" type="car" depart="1591.35">
        <route edges="E0 E1"/>
    </vehicle>
    <vehicle id="EW_car.82" type="car" depart="1595.64">
        <route edges="-E2 E1"/>
    </vehicle>
    <vehicle id="SN_car.90" type="car" depart="1603.89">
        <route edges="-E1 E2"/>
    </vehicle>
    <vehicle id="NS_car.104" type="car" depart="1606.80">
        <route edges="E0 E2"/>
    </vehicle>
    <vehicle id="EW_car.83" type="car" depart="1615.10">
        <route edges="-E2 E1"/>
    </vehicle>
    <vehicle id="SN_car.91" type="car" depart="1621.71">
        <route edges="-E1 -E0"/>
    </vehicle>
    <vehicle id="NS_car.105" type="car" depart="1622.25">
        <route edges="E0 E1"/>
    </vehicle>