<?xml version="1.0" encoding="UTF-8"?>

<!-- generated on 2026-05-23T12:14:43.698252+08:00 by Eclipse SUMO jtrrouter 1.26.0
<jtrrouterConfiguration xmlns:xsi="http://www.w3.org/2001/XMLSchema-instance" xsi:noNamespaceSchemaLocation="http://sumo.dlr.de/xsd/jtrrouterConfiguration.xsd">

    <input>
        <net-file value="demo_3.net.xml"/>
        <route-files value="demo_3.flow.xml"/>
        <turn-ratio-files value="demo_3.turn.xml"/>
    </input>

    <output>
        <output-file value="demo_3.rou.xml"/>
    </output>

    <time>
        <begin value="0"/>
        <end value="3600"/>
    </time>

</jtrrouterConfiguration>
-->

<routes xmlns:xsi="http://www.w3.org/2001/XMLSchema-instance" xsi:noNamespaceSchemaLocation="http://sumo.dlr.de/xsd/routes_file.xsd">
    <vType id="car" maxSpeed="37.00" vClass="passenger"/>
    <vehicle id="EW_car.0" type="car" depart="0.00">
        <route edges="-E1 E3"/>
    </vehicle>
    <vehicle id="NS_car.0" type="car" depart="0.00">
        <route edges="-E3 E2"/>
    </vehicle>
    <vehicle id="SN_car.0" type="car" depart="0.00">
        <route edges="-E2 -E0"/>
    </vehicle>
    <vehicle id="WE_car.0" type="car" depart="0.00">
        <route edges="E0 E1"/>
    </vehicle>
    <vehicle id="WE_car.1" type="car" depart="7.61">
        <route edges="E0 E1"/>
    </vehicle>
    <vehicle id="EW_car.1" type="car" depart="8.45">
        <route edges="-E1 -E0"/>
    </vehicle>
    <vehicle id="SN_car.1" type="car" depart="9.57">
        <route edges="-E2 E1"/>
    </vehicle>
    <vehicle id="NS_car.1" type="car" depart="9.89">
        <route edges="-E3 -E0"/>
    </vehicle>
    <vehicle id="WE_car.2" type="car" depart="15.22">
        <route edges="E0 E1"/>
    </vehicle>
    <vehicle id="EW_car.2" type="car" depart="16.90">
        <route edges="-E1 E3"/>
    </vehicle>
    <vehicle id="SN_car.2" type="car" depart="19.15">
        <route edges="-E2 -E0"/>
    </vehicle>
    <vehicle id="NS_car.2" type="car" depart="19.78">
        <route edges="-E3 E1"/>
    </vehicle>
    <vehicle id="WE_car.3" type="car" depart="22.83">
        <route edges="E0 E1"/>
    </vehicle>
    <vehicle id="EW_car.3" type="car" depart="25.35">
        <route edges="-E1 -E0"/>
    </vehicle>
    <vehicle id="SN_car.3" type="car" depart="28.72">
        <route edges="-E2 E1"/>
    </vehicle>
    <vehicle id="NS_car.3" type="car" depart="29.67">
        <route edges="-E3 -E0"/>
    </vehicle>
    <vehicle id="WE_car.4" type="car" depart="30.44">
        <route edges="E0 E1"/>
    </vehicle>
    <vehicle id="EW_car.4" type="car" depart="33.80">
        <route edges="-E1 E3"/>
    </vehicle>
    <vehicle id="WE_car.5" type="car" depart="38.05">
        <route edges="E0 E1"/>
    </vehicle>
    <vehicle id="SN_car.4" type="car" depart="38.30">
        <route edges="-E2 E1"/>
    </vehicle>
    <vehicle id="NS_car.4" type="car" depart="39.56">
        <route edges="-E3 -E0"/>
    </vehicle>
    <vehicle id="EW_car.5" type="car" depart="42.25">
        <route edges="-E1 -E0"/>
    </vehicle>
    <vehicle id="WE_car.6" type="car" depart="45.66">
        <route edges="E0 E1"/>
    </vehicle>
    <vehicle id="SN_car.5" type="car" depart="47.87">
        <route edges="-E2 E1"/>
    </vehicle>
    <vehicle id="NS_car.5" type="car" depart="49.45">
        <route edges="-E3 E2"/>
    </vehicle>
    <vehicle id="EW_car.6" type="car" depart="50.70">
        <route edges="-E1 E3"/>
    </vehicle>
    <vehicle id="WE_car.7" type="car" depart="53.27">
        <route edges="E0 E3"/>
    </vehicle>
    <vehicle id="SN_car.6" type="car" depart="57.44">
        <route edges="-E2 -E0"/>
    </vehicle>
    <vehicle id="EW_car.7" type="car" depart="59.15">
        <route edges="-E1 -E0"/>
    </vehicle>
    <vehicle id="NS_car.6" type="car" depart="59.34">
        <route edges="-E3 -E0"/>
    </vehicle>
    <vehicle id="WE_car.8" type="car" depart="60.88">
        <route edges="E0 E1"/>
    </vehicle>
    <vehicle id="SN_car.7" type="car" depart="67.02">
        <route edges="-E2 -E0"/>
    </vehicle>
    <vehicle id="EW_car.8" type="car" depart="67.60">
        <route edges="-E1 E3"/>
    </vehicle>
    <vehicle id="WE_car.9" type="car" depart="68.49">
        <route edges="E0 E1"/>
    </vehicle>
    <vehicle id="NS_car.7" type="car" depart="69.23">
        <route edges="-E3 E2"/>
    </vehicle>
    <vehicle id="EW_car.9" type="car" depart="76.05">
        <route edges="-E1 -E0"/>
    </vehicle>
    <vehicle id="WE_car.10" type="car" depart="76.10">
        <route edges="E0 E2"/>
    </vehicle>
    <vehicle id="SN_car.8" type="car" depart="76.59">
        <route edges="-E2 -E0"/>
    </vehicle>
    <vehicle id="NS_car.8" type="car" depart="79.12">
        <route edges="-E3 -E0"/>
    </vehicle>
    <vehicle id="WE_car.11" type="car" depart="83.71">
        <route edges="E0 E1"/>
    </vehicle>
    <vehicle id="EW_car.10" type="car" depart="84.50">
        <route edges="-E1 -E0"/>
    </vehicle>
    <vehicle id="SN_car.9" type="car" depart="86.17">
        <route edges="-E2 E3"/>
    </vehicle>
    <vehicle id="NS_car.9" type="car" depart="89.01">
        <route edges="-E3 -E0"/>
    </vehicle>
    <vehicle id="WE_car.12" type="car" depart="91.32">
        <route edges="E0 E1"/>
    </vehicle>
    <vehicle id="EW_car.11" type="car" depart="92.95">
        <route edges="-E1 -E0"/>
    </vehicle>
    <vehicle id="SN_car.10" type="car" depart="95.74">
        <route edges="-E2 E1"/>
    </vehicle>
    <vehicle id="NS_car.10" type="car" depart="98.90">
        <route edges="-E3 -E0"/>
    </vehicle>
    <vehicle id="WE_car.13" type="car" depart="98.93">
        <route edges="E0 E3"/>
    </vehicle>
    <vehicle id="EW_car.12" type="car" depart="101.40">
        <route edges="-E1 -E0"/>
    </vehicle>
    <vehicle id="SN_car.11" type="car" depart="105.31">
        <route edges="-E2 E1"/>
    </vehicle>
    <vehicle id="WE_car.14" type="car" depart="106.54">
        <route edges="E0 E2"/>
    </vehicle>
    <vehicle id="NS_car.11" type="car" depart="108.79">
        <route edges="-E3 E1"/>
    </vehicle>
    <vehicle id="EW_car.13" type="car" depart="109.85">
        <route edges="-E1 E2"/>
    </vehicle>
    <vehicle id="WE_car.15" type="car" depart="114.15">
        <route edges="E0 E3"/>
    </vehicle>
    <vehicle id="SN_car.12" type="car" depart="114.89">
        <route edges="-E2 E3"/>
    </vehicle>
    <vehicle id="EW_car.14" type="car" depart="118.30">
        <route edges="-E1 -E0"/>
    </vehicle>
    <vehicle id="NS_car.12" type="car" depart="118.68">
        <route edges="-E3 E1"/>
    </vehicle>
    <vehicle id="WE_car.16" type="car" depart="121.76">
        <route edges="E0 E1"/>
    </vehicle>
    <vehicle id="SN_car.13" type="car" depart="124.46">
        <route edges="-E2 -E0"/>
    </vehicle>
    <vehicle id="EW_car.15" type="car" depart="126.75">
        <route edges="-E1 E3"/>
    </vehicle>
    <vehicle id="NS_car.13" type="car" depart="128.57">
        <route edges="-E3 -E0"/>
    </vehicle>
    <vehicle id="WE_car.17" type="car" depart="129.37">
        <route edges="E0 E2"/>
    </vehicle>
    <vehicle id="SN_car.14" type="car" depart="134.04">
        <route edges="-E2 -E0"/>
    </vehicle>
    <vehicle id="EW_car.16" type="car" depart="135.20">
        <route edges="-E1 -E0"/>
    </vehicle>
    <vehicle id="WE_car.18" type="car" depart="136.98">
        <route edges="E0 E1"/>
    </vehicle>
    <vehicle id="NS_car.14" type="car" depart="138.46">
        <route edges="-E3 E1"/>
    </vehicle>
    <vehicle id="SN_car.15" type="car" depart="143.61">
        <route edges="-E2 E3"/>
    </vehicle>
    <vehicle id="EW_car.17" type="car" depart="143.65">
        <route edges="-E1 -E0"/>
    </vehicle>
    <vehicle id="WE_car.19" type="car" depart="144.59">
        <route edges="E0 E1"/>
    </vehicle>
    <vehicle id="NS_car.15" type="car" depart="148.35">
        <route edges="-E3 E2"/>
    </vehicle>
    <vehicle id="EW_car.18" type="car" depart="152.10">
        <route edges="-E1 -E0"/>
    </vehicle>
    <vehicle id="WE_car.20" type="car" depart="152.20">
        <route edges="E0 E1"/>
    </vehicle>
    <vehicle id="SN_car.16" type="car" depart="153.18">
        <route edges="-E2 -E0"/>
    </vehicle>
    <vehicle id="NS_car.16" type="car" depart="158.24">
        <route edges="-E3 E1"/>
    </vehicle>
    <vehicle id="WE_car.21" type="car" depart="159.81">
        <route edges="E0 E1"/>
    </vehicle>
    <vehicle id="EW_car.19" type="car" depart="160.55">
        <route edges="-E1 -E0"/>
    </vehicle>
    <vehicle id="SN_car.17" type="car" depart="162.76">
        <route edges="-E2 -E0"/>
    </vehicle>
    <vehicle id="WE_car.22" type="car" depart="167.42">
        <route edges="E0 E1"/>
    </vehicle>
    <vehicle id="NS_car.17" type="car" depart="168.13">
        <route edges="-E3 E2"/>
    </vehicle>
    <vehicle id="EW_car.20" type="car" depart="169.00">
        <route edges="-E1 -E0"/>
    </vehicle>
    <vehicle id="SN_car.18" type="car" depart="172.33">
        <route edges="-E2 -E0"/>
    </vehicle>
    <vehicle id="WE_car.23" type="car" depart="175.03">
        <route edges="E0 E1"/>
    </vehicle>
    <vehicle id="EW_car.21" type="car" depart="177.45">
        <route edges="-E1 E2"/>
    </vehicle>
    <vehicle id="NS_car.18" type="car" depart="178.02">
        <route edges="-E3 E1"/>
    </vehicle>
    <vehicle id="SN_car.19" type="car" depart="181.91">
        <route edges="-E2 E1"/>
    </vehicle>
    <vehicle id="WE_car.24" type="car" depart="182.64">
        <route edges="E0 E1"/>
    </vehicle>
    <vehicle id="EW_car.22" type="car" depart="185.90">
        <route edges="-E1 -E0"/>
    </vehicle>
    <vehicle id="NS_car.19" type="car" depart="187.91">
        <route edges="-E3 E2"/>
    </vehicle>
    <vehicle id="WE_car.25" type="car" depart="190.25">
        <route edges="E0 E1"/>
    </vehicle>
    <vehicle id="SN_car.20" type="car" depart="191.48">
        <route edges="-E2 -E0"/>
    </vehicle>
    <vehicle id="EW_car.23" type="car" depart="194.35">
        <route edges="-E1 -E0"/>
    </vehicle>
    <vehicle id="NS_car.20" type="car" depart="197.80">
        <route edges="-E3 E2"/>
    </vehicle>
    <vehicle id="WE_car.26" type="car" depart="197.86">
        <route edges="E0 E1"/>
    </vehicle>
    <vehicle id="SN_car.21" type="car" depart="201.05">
        <route edges="-E2 -E0"/>
    </vehicle>
    <vehicle id="EW_car.24" type="car" depart="202.80">
        <route edges="-E1 -E0"/>
    </vehicle>
    <vehicle id="WE_car.27" type="car" depart="205.47">
        <route edges="E0 E3"/>
    </vehicle>
    <vehicle id="NS_car.21" type="car" depart="207.69">
        <route edges="-E3 E1"/>
    </vehicle>
    <vehicle id="SN_car.22" type="car" depart="210.63">
        <route edges="-E2 E3"/>
    </vehicle>
    <vehicle id="EW_car.25" type="car" depart="211.25">
        <route edges="-E1 -E0"/>
    </vehicle>
    <vehicle id="WE_car.28" type="car" depart="213.08">
        <route edges="E0 E1"/>
    </vehicle>
    <vehicle id="NS_car.22" type="car" depart="217.58">
        <route edges="-E3 E2"/>
    </vehicle>
    <vehicle id="EW_car.26" type="car" depart="219.70">
        <route edges="-E1 -E0"/>
    </vehicle>
    <vehicle id="SN_car.23" type="car" depart="220.20">
        <route edges="-E2 E3"/>
    </vehicle>
    <vehicle id="WE_car.29" type="car" depart="220.69">
        <route edges="E0 E1"/>
    </vehicle>
    <vehicle id="NS_car.23" type="car" depart="227.47">
        <route edges="-E3 E2"/>
    </vehicle>
    <vehicle id="EW_car.27" type="car" depart="228.15">
        <route edges="-E1 -E0"/>
    </vehicle>
    <vehicle id="WE_car.30" type="car" depart="228.30">
        <route edges="E0 E1"/>
    </vehicle>
    <vehicle id="SN_car.24" type="car" depart="229.78">
        <route edges="-E2 -E0"/>
    </vehicle>
    <vehicle id="WE_car.31" type="car" depart="235.91">
        <route edges="E0 E2"/>
    </vehicle>
    <vehicle id="EW_car.28" type="car" depart="236.60">
        <route edges="-E1 -E0"/>
    </vehicle>
    <vehicle id="NS_car.24" type="car" depart="237.36">
        <route edges="-E3 E1"/>
    </vehicle>
    <vehicle id="SN_car.25" type="car" depart="239.35">
        <route edges="-E2 E1"/>
    </vehicle>
    <vehicle id="WE_car.32" type="car" depart="243.52">
        <route edges="E0 E2"/>
    </vehicle>
    <vehicle id="EW_car.29" type="car" depart="245.05">
        <route edges="-E1 -E0"/>
    </vehicle>
    <vehicle id="NS_car.25" type="car" depart="247.25">
        <route edges="-E3 E2"/>
    </vehicle>
    <vehicle id="SN_car.26" type="car" depart="248.92">
        <route edges="-E2 -E0"/>
    </vehicle>
    <vehicle id="WE_car.33" type="car" depart="251.13">
        <route edges="E0 E2"/>
    </vehicle>
    <vehicle id="EW_car.30" type="car" depart="253.50">
        <route edges="-E1 -E0"/>
    </vehicle>
    <vehicle id="NS_car.26" type="car" depart="257.14">
        <route edges="-E3 E2"/>
    </vehicle>
    <vehicle id="SN_car.27" type="car" depart="258.50">
        <route edges="-E2 -E0"/>
    </vehicle>
    <vehicle id="WE_car.34" type="car" depart="258.74">
        <route edges="E0 E1"/>
    </vehicle>
    <vehicle id="EW_car.31" type="car" depart="261.95">
        <route edges="-E1 -E0"/>
    </vehicle>
    <vehicle id="WE_car.35" type="car" depart="266.35">
        <route edges="E0 E1"/>
    </vehicle>
    <vehicle id="NS_car.27" type="car" depart="267.03">
        <route edges="-E3 E1"/>
    </vehicle>
    <vehicle id="SN_car.28" type="car" depart="268.07">
        <route edges="-E2 E3"/>
    </vehicle>
    <vehicle id="EW_car.32" type="car" depart="270.40">
        <route edges="-E1 E3"/>
    </vehicle>
    <vehicle id="WE_car.36" type="car" depart="273.96">
        <route edges="E0 E1"/>
    </vehicle>
    <vehicle id="NS_car.28" type="car" depart="276.92">
        <route edges="-E3 E2"/>
    </vehicle>
    <vehicle id="SN_car.29" type="car" depart="277.65">
        <route edges="-E2 -E0"/>
    </vehicle>
    <vehicle id="EW_car.33" type="car" depart="278.85">
        <route edges="-E1 E2"/>
    </vehicle>
    <vehicle id="WE_car.37" type="car" depart="281.57">
        <route edges="E0 E1"/>
    </vehicle>
    <vehicle id="NS_car.29" type="car" depart="286.81">
        <route edges="-E3 E1"/>
    </vehicle>
    <vehicle id="SN_car.30" type="car" depart="287.22">
        <route edges="-E2 -E0"/>
    </vehicle>
    <vehicle id="EW_car.34" type="car" depart="287.30">
        <route edges="-E1 -E0"/>
    </vehicle>
    <vehicle id="WE_car.38" type="car" depart="289.18">
        <route edges="E0 E2"/>
    </vehicle>
    <vehicle id="EW_car.35" type="car" depart="295.75">
        <route edges="-E1 -E0"/>
    </vehicle>
    <vehicle id="NS_car.30" type="car" depart="296.70">
        <route edges="-E3 E1"/>
    </vehicle>
    <vehicle id="WE_car.39" type="car" depart="296.79">
        <route edges="E0 E1"/>
    </vehicle>
    <vehicle id="SN_car.31" type="car" depart="296.79">
        <route edges="-E2 E3"/>
    </vehicle>
    <vehicle id="EW_car.36" type="car" depart="304.20">
        <route edges="-E1 E2"/>
    </vehicle>
    <vehicle id="WE_car.40" type="car" depart="304.40">
        <route edges="E0 E3"/>
    </vehicle>
    <vehicle id="SN_car.32" type="car" depart="306.37">
        <route edges="-E2 E3"/>
    </vehicle>
    <vehicle id="NS_car.31" type="car" depart="306.59">
        <route edges="-E3 E1"/>
    </vehicle>
    <vehicle id="WE_car.41" type="car" depart="312.01">
        <route edges="E0 E1"/>
    </vehicle>
    <vehicle id="EW_car.37" type="car" depart="312.65">
        <route edges="-E1 E3"/>
    </vehicle>
    <vehicle id="SN_car.33" type="car" depart="315.94">
        <route edges="-E2 E3"/>
    </vehicle>
    <vehicle id="NS_car.32" type="car" depart="316.48">
        <route edges="-E3 E1"/>
    </vehicle>
    <vehicle id="WE_car.42" type="car" depart="319.62">
        <route edges="E0 E3"/>
    </vehicle>
    <vehicle id="EW_car.38" type="car" depart="321.10">
        <route edges="-E1 -E0"/>
    </vehicle>
    <vehicle id="SN_car.34" type="car" depart="325.52">
        <route edges="-E2 -E0"/>
    </vehicle>
    <vehicle id="NS_car.33" type="car" depart="326.37">
        <route edges="-E3 E2"/>
    </vehicle>
    <vehicle id="WE_car.43" type="car" depart="327.23">
        <route edges="E0 E1"/>
    </vehicle>
    <vehicle id="EW_car.39" type="car" depart="329.55">
        <route edges="-E1 -E0"/>
    </vehicle>
    <vehicle id="WE_car.44" type="car" depart="334.84">
        <route edges="E0 E1"/>
    </vehicle>
    <vehicle id="SN_car.35" type="car" depart="335.09">
        <route edges="-E2 E1"/>
    </vehicle>
    <vehicle id="NS_car.34" type="car" depart="336.26">
        <route edges="-E3 E2"/>
    </vehicle>
    <vehicle id="EW_car.40" type="car" depart="338.00">
        <route edges="-E1 -E0"/>
    </vehicle>
    <vehicle id="WE_car.45" type="car" depart="342.45">
        <route edges="E0 E1"/>
    </vehicle>
    <vehicle id="SN_car.36" type="car" depart="344.66">
        <route edges="-E2 E3"/>
    </vehicle>
    <vehicle id="NS_car.35" type="car" depart="346.15">
        <route edges="-E3 E1"/>
    </vehicle>
    <vehicle id="EW_car.41" type="car" depart="346.45">
        <route edges="-E1 -E0"/>
    </vehicle>
    <vehicle id="WE_car.46" type="car" depart="350.06">
        <route edges="E0 E3"/>
    </vehicle>
    <vehicle id="SN_car.37" type="car" depart="354.24">
        <route edges="-E2 E3"/>
    </vehicle>
    <vehicle id="EW_car.42" type="car" depart="354.90">
        <route edges="-E1 -E0"/>
    </vehicle>
    <vehicle id="NS_car.36" type="car" depart="356.04">
        <route edges="-E3 E2"/>
    </vehicle>
    <vehicle id="WE_car.47" type="car" depart="357.67">
        <route edges="E0 E1"/>
    </vehicle>
    <vehicle id="EW_car.43" type="car" depart="363.35">
        <route edges="-E1 E3"/>
    </vehicle>
    <vehicle id="SN_car.38" type="car" depart="363.81">
        <route edges="-E2 E1"/>
    </vehicle>
    <vehicle id="WE_car.48" type="car" depart="365.28">
        <route edges="E0 E1"/>
    </vehicle>
    <vehicle id="NS_car.37" type="car" depart="365.93">
        <route edges="-E3 E2"/>
    </vehicle>
    <vehicle id="EW_car.44" type="car" depart="371.80">
        <route edges="-E1 -E0"/>
    </vehicle>
    <vehicle id="WE_car.49" type="car" depart="372.89">
        <route edges="E0 E1"/>
    </vehicle>
    <vehicle id="SN_car.39" type="car" depart="373.39">
        <route edges="-E2 -E0"/>
    </vehicle>
    <vehicle id="NS_car.38" type="car" depart="375.82">
        <route edges="-E3 E1"/>
    </vehicle>
    <vehicle id="EW_car.45" type="car" depart="380.25">
        <route edges="-E1 -E0"/>
    </vehicle>
    <vehicle id="WE_car.50" type="car" depart="380.50">
        <route edges="E0 E2"/>
    </vehicle>
    <vehicle id="SN_car.40" type="car" depart="382.96">
        <route edges="-E2 -E0"/>
    </vehicle>
    <vehicle id="NS_car.39" type="car" depart="385.71">
        <route edges="-E3 -E0"/>
    </vehicle>
    <vehicle id="WE_car.51" type="car" depart="388.11">
        <route edges="E0 E3"/>
    </vehicle>
    <vehicle id="EW_car.46" type="car" depart="388.70">
        <route edges="-E1 -E0"/>
    </vehicle>
    <vehicle id="SN_car.41" type="car" depart="392.53">
        <route edges="-E2 E1"/>
    </vehicle>
    <vehicle id="NS_car.40" type="car" depart="395.60">
        <route edges="-E3 -E0"/>
    </vehicle>
    <vehicle id="WE_car.52" type="car" depart="395.72">
        <route edges="E0 E2"/>
    </vehicle>
    <vehicle id="EW_car.47" type="car" depart="397.15">
        <route edges="-E1 -E0"/>
    </vehicle>
    <vehicle id="SN_car.42" type="car" depart="402.11">
        <route edges="-E2 -E0"/>
    </vehicle>
    <vehicle id="WE_car.53" type="car" depart="403.33">
        <route edges="E0 E1"/>
    </vehicle>
    <vehicle id="NS_car.41" type="car" depart="405.49">
        <route edges="-E3 -E0"/>
    </vehicle>
    <vehicle id="EW_car.48" type="car" depart="405.60">
        <route edges="-E1 -E0"/>
    </vehicle>
    <vehicle id="WE_car.54" type="car" depart="410.94">
        <route edges="E0 E3"/>
    </vehicle>
    <vehicle id="SN_car.43" type="car" depart="411.68">
        <route edges="-E2 -E0"/>
    </vehicle>
    <vehicle id="EW_car.49" type="car" depart="414.05">
        <route edges="-E1 -E0"/>
    </vehicle>
    <vehicle id="NS_car.42" type="car" depart="415.38">
        <route edges="-E3 E2"/>
    </vehicle>
    <vehicle id="WE_car.55" type="car" depart="418.55">
        <route edges="E0 E1"/>
    </vehicle>
    <vehicle id="SN_car.44" type="car" depart="421.26">
        <route edges="-E2 -E0"/>
    </vehicle>
    <vehicle id="EW_car.50" type="car" depart="422.50">
        <route edges="-E1 -E0"/>
    </vehicle>
    <vehicle id="NS_car.43" type="car" depart="425.27">
        <route edges="-E3 E2"/>
    </vehicle>
    <vehicle id="WE_car.56" type="car" depart="426.16">
        <route edges="E0 E1"/>
    </vehicle>
    <vehicle id="SN_car.45" type="car" depart="430.83">
        <route edges="-E2 E3"/>
    </vehicle>
    <vehicle id="EW_car.51" type="car" depart="430.95">
        <route edges="-E1 -E0"/>
    </vehicle>
    <vehicle id="WE_car.57" type="car" depart="433.77">
        <route edges="E0 E2"/>
    </vehicle>
    <vehicle id="NS_car.44" type="car" depart="435.16">
        <route edges="-E3 E1"/>
    </vehicle>
    <vehicle id="EW_car.52" type="car" depart="439.40">
        <route edges="-E1 -E0"/>
    </vehicle>
    <vehicle id="SN_car.46" type="car" depart="440.40">
        <route edges="-E2 E1"/>
    </vehicle>
    <vehicle id="WE_car.58" type="car" depart="441.38">
        <route edges="E0 E1"/>
    </vehicle>
    <vehicle id="NS_car.45" type="car" depart="445.05">
        <route edges="-E3 E2"/>
    </vehicle>
    <vehicle id="EW_car.53" type="car" depart="447.85">
        <route edges="-E1 E3"/>
    </vehicle>
    <vehicle id="WE_car.59" type="car" depart="448.99">
        <route edges="E0 E2"/>
    </vehicle>
    <vehicle id="SN_car.47" type="car" depart="449.98">
        <route edges="-E2 -E0"/>
    </vehicle>
    <vehicle id="NS_car.46" type="car" depart="454.94">
        <route edges="-E3 E1"/>
    </vehicle>
    <vehicle id="EW_car.54" type="car" depart="456.30">
        <route edges="-E1 -E0"/>
    </vehicle>
    <vehicle id="WE_car.60" type="car" depart="456.60">
        <route edges="E0 E1"/>
    </vehicle>
    <vehicle id="SN_car.48" type="car" depart="459.55">
        <route edges="-E2 -E0"/>
    </vehicle>
    <vehicle id="WE_car.61" type="car" depart="464.21">
        <route edges="E0 E1"/>
    </vehicle>
    <vehicle id="EW_car.55" type="car" depart="464.75">
        <route edges="-E1 E3"/>
    </vehicle>
    <vehicle id="NS_car.47" type="car" depart="464.83">
        <route edges="-E3 E2"/>
    </vehicle>
    <vehicle id="SN_car.49" type="car" depart="469.13">
        <route edges="-E2 E1"/>
    </vehicle>
    <vehicle id="WE_car.62" type="car" depart="471.82">
        <route edges="E0 E1"/>
    </vehicle>
    <vehicle id="EW_car.56" type="car" depart="473.20">
        <route edges="-E1 E3"/>
    </vehicle>
    <vehicle id="NS_car.48" type="car" depart="474.72">
        <route edges="-E3 -E0"/>
    </vehicle>
    <vehicle id="SN_car.50" type="car" depart="478.70">
        <route edges="-E2 -E0"/>
    </vehicle>
    <vehicle id="WE_car.63" type="car" depart="479.43">
        <route edges="E0 E1"/>
    </vehicle>
    <vehicle id="EW_car.57" type="car" depart="481.65">
        <route edges="-E1 -E0"/>
    </vehicle>
    <vehicle id="NS_car.49" type="car" depart="484.61">
        <route edges="-E3 E1"/>
    </vehicle>
    <vehicle id="WE_car.64" type="car" depart="487.04">
        <route edges="E0 E1"/>
    </vehicle>
    <vehicle id="SN_car.51" type="car" depart="488.27">
        <route edges="-E2 E1"/>
    </vehicle>
    <vehicle id="EW_car.58" type="car" depart="490.10">
        <route edges="-E1 E3"/>
    </vehicle>
    <vehicle id="NS_car.50" type="car" depart="494.50">
        <route edges="-E3 E2"/>
    </vehicle>
    <vehicle id="WE_car.65" type="car" depart="494.65">
        <route edges="E0 E1"/>
    </vehicle>
    <vehicle id="SN_car.52" type="car" depart="497.85">
        <route edges="-E2 E3"/>
    </vehicle>
    <vehicle id="EW_car.59" type="car" depart="498.55">
        <route edges="-E1 -E0"/>
    </vehicle>
    <vehicle id="WE_car.66" type="car" depart="502.26">
        <route edges="E0 E1"/>
    </vehicle>
    <vehicle id="NS_car.51" type="car" depart="504.39">
        <route edges="-E3 -E0"/>
    </vehicle>
    <vehicle id="EW_car.60" type="car" depart="507.00">
        <route edges="-E1 -E0"/>
    </vehicle>
    <vehicle id="SN_car.53" type="car" depart="507.42">
        <route edges="-E2 -E0"/>
    </vehicle>
    <vehicle id="WE_car.67" type="car" depart="509.87">
        <route edges="E0 E1"/>
    </vehicle>
    <vehicle id="NS_car.52" type="car" depart="514.28">
        <route edges="-E3 E2"/>
    </vehicle>
    <vehicle id="EW_car.61" type="car" depart="515.45">
        <route edges="-E1 E3"/>
    </vehicle>
    <vehicle id="SN_car.54" type="car" depart="517.00">
        <route edges="-E2 -E0"/>
    </vehicle>
    <vehicle id="WE_car.68" type="car" depart="517.48">
        <route edges="E0 E3"/>
    </vehicle>
    <vehicle id="EW_car.62" type="car" depart="523.90">
        <route edges="-E1 -E0"/>
    </vehicle>
    <vehicle id="NS_car.53" type="car" depart="524.17">
        <route edges="-E3 -E0"/>
    </vehicle>
    <vehicle id="WE_car.69" type="car" depart="525.09">
        <route edges="E0 E1"/>
    </vehicle>
    <vehicle id="SN_car.55" type="car" depart="526.57">
        <route edges="-E2 E1"/>
    </vehicle>
    <vehicle id="EW_car.63" type="car" depart="532.35">
        <route edges="-E1 -E0"/>
    </vehicle>
    <vehicle id="WE_car.70" type="car" depart="532.70">
        <route edges="E0 E1"/>
    </vehicle>
    <vehicle id="NS_car.54" type="car" depart="534.06">
        <route edges="-E3 -E0"/>
    </vehicle>
    <vehicle id="SN_car.56" type="car" depart="536.14">
        <route edges="-E2 E3"/>
    </vehicle>
    <vehicle id="WE_car.71" type="car" depart="540.31">
        <route edges="E0 E1"/>
    </vehicle>
    <vehicle id="EW_car.64" type="car" depart="540.80">
        <route edges="-E1 -E0"/>
    </vehicle>
    <vehicle id="NS_car.55" type="car" depart="543.95">
        <route edges="-E3 -E0"/>
    </vehicle>
    <vehicle id="SN_car.57" type="car" depart="545.72">
        <route edges="-E2 -E0"/>
    </vehicle>
    <vehicle id="WE_car.72" type="car" depart="547.92">
        <route edges="E0 E2"/>
    </vehicle>
    <vehicle id="EW_car.65" type="car" depart="549.25">
        <route edges="-E1 -E0"/>
    </vehicle>
    <vehicle id="NS_car.56" type="car" depart="553.84">
        <route edges="-E3 E1"/>
    </vehicle>
    <vehicle id="SN_car.58" type="car" depart="555.29">
        <route edges="-E2 E1"/>
    </vehicle>
    <vehicle id="WE_car.73" type="car" depart="555.53">
        <route edges="E0 E1"/>
    </vehicle>
    <vehicle id="EW_car.66" type="car" depart="557.70">
        <route edges="-E1 E3"/>
    </vehicle>
    <vehicle id="WE_car.74" type="car" depart="563.14">
        <route edges="E0 E2"/>
    </vehicle>
    <vehicle id="NS_car.57" type="car" depart="563.73">
        <route edges="-E3 E1"/>
    </vehicle>
    <vehicle id="SN_car.59" type="car" depart="564.87">
        <route edges="-E2 -E0"/>
    </vehicle>
    <vehicle id="EW_car.67" type="car" depart="566.15">
        <route edges="-E1 -E0"/>
    </vehicle>
    <vehicle id="WE_car.75" type="car" depart="570.75">
        <route edges="E0 E3"/>
    </vehicle>
    <vehicle id="NS_car.58" type="car" depart="573.62">
        <route edges="-E3 -E0"/>
    </vehicle>
    <vehicle id="SN_car.60" type="car" depart="574.44">
        <route edges="-E2 -E0"/>
    </vehicle>
    <vehicle id="EW_car.68" type="car" depart="574.60">
        <route edges="-E1 -E0"/>
    </vehicle>
    <vehicle id="WE_car.76" type="car" depart="578.36">
        <route edges="E0 E1"/>
    </vehicle>
    <vehicle id="EW_car.69" type="car" depart="583.05">
        <route edges="-E1 E2"/>
    </vehicle>
    <vehicle id="NS_car.59" type="car" depart="583.51">
        <route edges="-E3 -E0"/>
    </vehicle>
    <vehicle id="SN_car.61" type="car" depart="584.01">
        <route edges="-E2 E3"/>
    </vehicle>
    <vehicle id="WE_car.77" type="car" depart="585.97">
        <route edges="E0 E3"/>
    </vehicle>
    <vehicle id="EW_car.70" type="car" depart="591.50">
        <route edges="-E1 E2"/>
    </vehicle>
    <vehicle id="NS_car.60" type="car" depart="593.40">
        <route edges="-E3 -E0"/>
    </vehicle>
    <vehicle id="WE_car.78" type="car" depart="593.58">
        <route edges="E0 E3"/>
    </vehicle>
    <vehicle id="SN_car.62" type="car" depart="593.59">
        <route edges="-E2 E1"/>
    </vehicle>
    <vehicle id="EW_car.71" type="car" depart="599.95">
        <route edges="-E1 -E0"/>
    </vehicle>
    <vehicle id="WE_car.79" type="car" depart="601.19">
        <route edges="E0 E1"/>
    </vehicle>
    <vehicle id="SN_car.63" type="car" depart="603.16">
        <route edges="-E2 E3"/>
    </vehicle>
    <vehicle id="NS_car.61" type="car" depart="603.29">
        <route edges="-E3 E2"/>
    </vehicle>
    <vehicle id="EW_car.72" type="car" depart="608.40">
        <route edges="-E1 E3"/>
    </vehicle>
    <vehicle id="WE_car.80" type="car" depart="608.80">
        <route edges="E0 E2"/>
    </vehicle>
    <vehicle id="SN_car.64" type="car" depart="612.74">
        <route edges="-E2 -E0"/>
    </vehicle>
    <vehicle id="NS_car.62" type="car" depart="613.18">
        <route edges="-E3 E1"/>
    </vehicle>
    <vehicle id="WE_car.81" type="car" depart="616.41">
        <route edges="E0 E1"/>
    </vehicle>
    <vehicle id="EW_car.73" type="car" depart="616.85">
        <route edges="-E1 -E0"/>