<?xml version="1.0" encoding="UTF-8"?>

<!-- generated on 2026-05-23T13:43:48.731914+08:00 by Eclipse SUMO jtrrouter 1.26.0
<jtrrouterConfiguration xmlns:xsi="http://www.w3.org/2001/XMLSchema-instance" xsi:noNamespaceSchemaLocation="http://sumo.dlr.de/xsd/jtrrouterConfiguration.xsd">

    <input>
        <net-file value="demo_8.net.xml"/>
        <route-files value="demo_8.flow.xml"/>
        <turn-ratio-files value="demo_8.turn.xml"/>
    </input>

    <output>
        <output-file value="demo_8.rou.xml"/>
    </output>

    <time>
        <begin value="0"/>
        <end value="3600"/>
    </time>

</jtrrouterConfiguration>
-->

<routes xmlns:xsi="http://www.w3.org/2001/XMLSchema-instance" xsi:noNamespaceSchemaLocation="http://sumo.dlr.de/xsd/routes_file.xsd">
    <vType id="car" maxSpeed="37.00" vClass="passenger"/>
    <vehicle id="EW_car.0" type="car" depart="0.00">
        <route edges="-E1 E3"/>
    </vehicle>
    <vehicle id="NS_car.0" type="car" depart="0.00">
        <route edges="-E2 E3"/>
    </vehicle>
    <vehicle id="SN_car.0" type="car" depart="0.00">
        <route edges="-E3 -E0"/>
    </vehicle>
    <vehicle id="WE_car.0" type="car" depart="0.00">
        <route edges="E0 E1"/>
    </vehicle>
    <vehicle id="SN_car.1" type="car" depart="7.58">
        <route edges="-E3 E1"/>
    </vehicle>
    <vehicle id="WE_car.1" type="car" depart="7.78">
        <route edges="E0 E1"/>
    </vehicle>
    <vehicle id="NS_car.1" type="car" depart="8.16">
        <route edges="-E2 E3"/>
    </vehicle>
    <vehicle id="EW_car.1" type="car" depart="8.20">
        <route edges="-E1 -E0"/>
    </vehicle>
    <vehicle id="SN_car.2" type="car" depart="15.16">
        <route edges="-E3 E1"/>
    </vehicle>
    <vehicle id="WE_car.2" type="car" depart="15.55">
        <route edges="E0 E3"/>
    </vehicle>
    <vehicle id="NS_car.2" type="car" depart="16.33">
        <route edges="-E2 -E0"/>
    </vehicle>
    <vehicle id="EW_car.2" type="car" depart="16.40">
        <route edges="-E1 E3"/>
    </vehicle>
    <vehicle id="SN_car.3" type="car" depart="22.73">
        <route edges="-E3 E1"/>
    </vehicle>
    <vehicle id="WE_car.3" type="car" depart="23.33">
        <route edges="E0 E1"/>
    </vehicle>
    <vehicle id="NS_car.3" type="car" depart="24.49">
        <route edges="-E2 E1"/>
    </vehicle>
    <vehicle id="EW_car.3" type="car" depart="24.60">
        <route edges="-E1 -E0"/>
    </vehicle>
    <vehicle id="SN_car.4" type="car" depart="30.31">
        <route edges="-E3 -E0"/>
    </vehicle>
    <vehicle id="WE_car.4" type="car" depart="31.10">
        <route edges="E0 E3"/>
    </vehicle>
    <vehicle id="NS_car.4" type="car" depart="32.65">
        <route edges="-E2 E1"/>
    </vehicle>
    <vehicle id="EW_car.4" type="car" depart="32.80">
        <route edges="-E1 E3"/>
    </vehicle>
    <vehicle id="SN_car.5" type="car" depart="37.89">
        <route edges="-E3 -E0"/>
    </vehicle>
    <vehicle id="WE_car.5" type="car" depart="38.88">
        <route edges="E0 E2"/>
    </vehicle>
    <vehicle id="NS_car.5" type="car" depart="40.82">
        <route edges="-E2 E1"/>
    </vehicle>
    <vehicle id="EW_car.5" type="car" depart="41.00">
        <route edges="-E1 E3"/>
    </vehicle>
    <vehicle id="SN_car.6" type="car" depart="45.47">
        <route edges="-E3 E2"/>
    </vehicle>
    <vehicle id="WE_car.6" type="car" depart="46.65">
        <route edges="E0 E3"/>
    </vehicle>
    <vehicle id="NS_car.6" type="car" depart="48.98">
        <route edges="-E2 E3"/>
    </vehicle>
    <vehicle id="EW_car.6" type="car" depart="49.20">
        <route edges="-E1 E2"/>
    </vehicle>
    <vehicle id="SN_car.7" type="car" depart="53.05">
        <route edges="-E3 E1"/>
    </vehicle>
    <vehicle id="WE_car.7" type="car" depart="54.43">
        <route edges="E0 E1"/>
    </vehicle>
    <vehicle id="NS_car.7" type="car" depart="57.14">
        <route edges="-E2 -E0"/>
    </vehicle>
    <vehicle id="EW_car.7" type="car" depart="57.40">
        <route edges="-E1 E2"/>
    </vehicle>
    <vehicle id="SN_car.8" type="car" depart="60.62">
        <route edges="-E3 E2"/>
    </vehicle>
    <vehicle id="WE_car.8" type="car" depart="62.20">
        <route edges="E0 E1"/>
    </vehicle>
    <vehicle id="NS_car.8" type="car" depart="65.30">
        <route edges="-E2 E3"/>
    </vehicle>
    <vehicle id="EW_car.8" type="car" depart="65.60">
        <route edges="-E1 -E0"/>
    </vehicle>
    <vehicle id="SN_car.9" type="car" depart="68.20">
        <route edges="-E3 E2"/>
    </vehicle>
    <vehicle id="WE_car.9" type="car" depart="69.98">
        <route edges="E0 E1"/>
    </vehicle>
    <vehicle id="NS_car.9" type="car" depart="73.47">
        <route edges="-E2 E1"/>
    </vehicle>
    <vehicle id="EW_car.9" type="car" depart="73.80">
        <route edges="-E1 -E0"/>
    </vehicle>
    <vehicle id="SN_car.10" type="car" depart="75.78">
        <route edges="-E3 E1"/>
    </vehicle>
    <vehicle id="WE_car.10" type="car" depart="77.75">
        <route edges="E0 E3"/>
    </vehicle>
    <vehicle id="NS_car.10" type="car" depart="81.63">
        <route edges="-E2 E1"/>
    </vehicle>
    <vehicle id="EW_car.10" type="car" depart="82.00">
        <route edges="-E1 -E0"/>
    </vehicle>
    <vehicle id="SN_car.11" type="car" depart="83.36">
        <route edges="-E3 -E0"/>
    </vehicle>
    <vehicle id="WE_car.11" type="car" depart="85.53">
        <route edges="E0 E2"/>
    </vehicle>
    <vehicle id="NS_car.11" type="car" depart="89.79">
        <route edges="-E2 E1"/>
    </vehicle>
    <vehicle id="EW_car.11" type="car" depart="90.20">
        <route edges="-E1 E3"/>
    </vehicle>
    <vehicle id="SN_car.12" type="car" depart="90.94">
        <route edges="-E3 -E0"/>
    </vehicle>
    <vehicle id="WE_car.12" type="car" depart="93.30">
        <route edges="E0 E3"/>
    </vehicle>
    <vehicle id="NS_car.12" type="car" depart="97.96">
        <route edges="-E2 E3"/>
    </vehicle>
    <vehicle id="EW_car.12" type="car" depart="98.40">
        <route edges="-E1 E3"/>
    </vehicle>
    <vehicle id="SN_car.13" type="car" depart="98.51">
        <route edges="-E3 E2"/>
    </vehicle>
    <vehicle id="WE_car.13" type="car" depart="101.08">
        <route edges="E0 E3"/>
    </vehicle>
    <vehicle id="SN_car.14" type="car" depart="106.09">
        <route edges="-E3 E2"/>
    </vehicle>
    <vehicle id="NS_car.13" type="car" depart="106.12">
        <route edges="-E2 E1"/>
    </vehicle>
    <vehicle id="EW_car.13" type="car" depart="106.60">
        <route edges="-E1 E2"/>
    </vehicle>
    <vehicle id="WE_car.14" type="car" depart="108.85">
        <route edges="E0 E2"/>
    </vehicle>
    <vehicle id="SN_car.15" type="car" depart="113.67">
        <route edges="-E3 -E0"/>
    </vehicle>
    <vehicle id="NS_car.14" type="car" depart="114.28">
        <route edges="-E2 E3"/>
    </vehicle>
    <vehicle id="EW_car.14" type="car" depart="114.80">
        <route edges="-E1 -E0"/>
    </vehicle>
    <vehicle id="WE_car.15" type="car" depart="116.63">
        <route edges="E0 E3"/>
    </vehicle>
    <vehicle id="SN_car.16" type="car" depart="121.25">
        <route edges="-E3 -E0"/>
    </vehicle>
    <vehicle id="NS_car.15" type="car" depart="122.45">
        <route edges="-E2 -E0"/>
    </vehicle>
    <vehicle id="EW_car.15" type="car" depart="123.00">
        <route edges="-E1 -E0"/>
    </vehicle>
    <vehicle id="WE_car.16" type="car" depart="124.40">
        <route edges="E0 E2"/>
    </vehicle>
    <vehicle id="SN_car.17" type="car" depart="128.83">
        <route edges="-E3 E2"/>
    </vehicle>
    <vehicle id="NS_car.16" type="car" depart="130.61">
        <route edges="-E2 -E0"/>
    </vehicle>
    <vehicle id="EW_car.16" type="car" depart="131.20">
        <route edges="-E1 -E0"/>
    </vehicle>
    <vehicle id="WE_car.17" type="car" depart="132.18">
        <route edges="E0 E3"/>
    </vehicle>
    <vehicle id="SN_car.18" type="car" depart="136.40">
        <route edges="-E3 E1"/>
    </vehicle>
    <vehicle id="NS_car.17" type="car" depart="138.77">
        <route edges="-E2 E1"/>
    </vehicle>
    <vehicle id="EW_car.17" type="car" depart="139.40">
        <route edges="-E1 -E0"/>
    </vehicle>
    <vehicle id="WE_car.18" type="car" depart="139.95">
        <route edges="E0 E2"/>
    </vehicle>
    <vehicle id="SN_car.19" type="car" depart="143.98">
        <route edges="-E3 -E0"/>
    </vehicle>
    <vehicle id="NS_car.18" type="car" depart="146.93">
        <route edges="-E2 E1"/>
    </vehicle>
    <vehicle id="EW_car.18" type="car" depart="147.60">
        <route edges="-E1 -E0"/>
    </vehicle>
    <vehicle id="WE_car.19" type="car" depart="147.73">
        <route edges="E0 E1"/>
    </vehicle>
    <vehicle id="SN_car.20" type="car" depart="151.56">
        <route edges="-E3 E2"/>
    </vehicle>
    <vehicle id="NS_car.19" type="car" depart="155.10">
        <route edges="-E2 E1"/>
    </vehicle>
    <vehicle id="WE_car.20" type="car" depart="155.50">
        <route edges="E0 E1"/>
    </vehicle>
    <vehicle id="EW_car.19" type="car" depart="155.80">
        <route edges="-E1 -E0"/>
    </vehicle>
    <vehicle id="SN_car.21" type="car" depart="159.14">
        <route edges="-E3 E2"/>
    </vehicle>
    <vehicle id="NS_car.20" type="car" depart="163.26">
        <route edges="-E2 E1"/>
    </vehicle>
    <vehicle id="WE_car.21" type="car" depart="163.28">
        <route edges="E0 E3"/>
    </vehicle>
    <vehicle id="EW_car.20" type="car" depart="164.00">
        <route edges="-E1 E2"/>
    </vehicle>
    <vehicle id="SN_car.22" type="car" depart="166.72">
        <route edges="-E3 E1"/>
    </vehicle>
    <vehicle id="WE_car.22" type="car" depart="171.05">
        <route edges="E0 E3"/>
    </vehicle>
    <vehicle id="NS_car.21" type="car" depart="171.42">
        <route edges="-E2 E1"/>
    </vehicle>
    <vehicle id="EW_car.21" type="car" depart="172.20">
        <route edges="-E1 E2"/>
    </vehicle>
    <vehicle id="SN_car.23" type="car" depart="174.29">
        <route edges="-E3 E1"/>
    </vehicle>
    <vehicle id="WE_car.23" type="car" depart="178.83">
        <route edges="E0 E3"/>
    </vehicle>
    <vehicle id="NS_car.22" type="car" depart="179.59">
        <route edges="-E2 -E0"/>
    </vehicle>
    <vehicle id="EW_car.22" type="car" depart="180.40">
        <route edges="-E1 E2"/>
    </vehicle>
    <vehicle id="SN_car.24" type="car" depart="181.87">
        <route edges="-E3 -E0"/>
    </vehicle>
    <vehicle id="WE_car.24" type="car" depart="186.60">
        <route edges="E0 E3"/>
    </vehicle>
    <vehicle id="NS_car.23" type="car" depart="187.75">
        <route edges="-E2 E1"/>
    </vehicle>
    <vehicle id="EW_car.23" type="car" depart="188.60">
        <route edges="-E1 E3"/>
    </vehicle>
    <vehicle id="SN_car.25" type="car" depart="189.45">
        <route edges="-E3 E1"/>
    </vehicle>
    <vehicle id="WE_car.25" type="car" depart="194.38">
        <route edges="E0 E1"/>
    </vehicle>
    <vehicle id="NS_car.24" type="car" depart="195.91">
        <route edges="-E2 E3"/>
    </vehicle>
    <vehicle id="EW_car.24" type="car" depart="196.80">
        <route edges="-E1 E2"/>
    </vehicle>
    <vehicle id="SN_car.26" type="car" depart="197.03">
        <route edges="-E3 E2"/>
    </vehicle>
    <vehicle id="WE_car.26" type="car" depart="202.15">
        <route edges="E0 E2"/>
    </vehicle>
    <vehicle id="NS_car.25" type="car" depart="204.08">
        <route edges="-E2 E3"/>
    </vehicle>
    <vehicle id="SN_car.27" type="car" depart="204.61">
        <route edges="-E3 -E0"/>
    </vehicle>
    <vehicle id="EW_car.25" type="car" depart="205.00">
        <route edges="-E1 E2"/>
    </vehicle>
    <vehicle id="WE_car.27" type="car" depart="209.93">
        <route edges="E0 E1"/>
    </vehicle>
    <vehicle id="SN_car.28" type="car" depart="212.18">
        <route edges="-E3 E2"/>
    </vehicle>
    <vehicle id="NS_car.26" type="car" depart="212.24">
        <route edges="-E2 E1"/>
    </vehicle>
    <vehicle id="EW_car.26" type="car" depart="213.20">
        <route edges="-E1 E2"/>
    </vehicle>
    <vehicle id="WE_car.28" type="car" depart="217.70">
        <route edges="E0 E3"/>
    </vehicle>
    <vehicle id="SN_car.29" type="car" depart="219.76">
        <route edges="-E3 E2"/>
    </vehicle>
    <vehicle id="NS_car.27" type="car" depart="220.40">
        <route edges="-E2 E1"/>
    </vehicle>
    <vehicle id="EW_car.27" type="car" depart="221.40">
        <route edges="-E1 E3"/>
    </vehicle>
    <vehicle id="WE_car.29" type="car" depart="225.48">
        <route edges="E0 E1"/>
    </vehicle>
    <vehicle id="SN_car.30" type="car" depart="227.34">
        <route edges="-E3 E2"/>
    </vehicle>
    <vehicle id="NS_car.28" type="car" depart="228.56">
        <route edges="-E2 E1"/>
    </vehicle>
    <vehicle id="EW_car.28" type="car" depart="229.60">
        <route edges="-E1 E3"/>
    </vehicle>
    <vehicle id="WE_car.30" type="car" depart="233.25">
        <route edges="E0 E1"/>
    </vehicle>
    <vehicle id="SN_car.31" type="car" depart="234.92">
        <route edges="-E3 E1"/>
    </vehicle>
    <vehicle id="NS_car.29" type="car" depart="236.73">
        <route edges="-E2 -E0"/>
    </vehicle>
    <vehicle id="EW_car.29" type="car" depart="237.80">
        <route edges="-E1 E2"/>
    </vehicle>
    <vehicle id="WE_car.31" type="car" depart="241.03">
        <route edges="E0 E3"/>
    </vehicle>
    <vehicle id="SN_car.32" type="car" depart="242.50">
        <route edges="-E3 E2"/>
    </vehicle>
    <vehicle id="NS_car.30" type="car" depart="244.89">
        <route edges="-E2 E3"/>
    </vehicle>
    <vehicle id="EW_car.30" type="car" depart="246.00">
        <route edges="-E1 -E0"/>
    </vehicle>
    <vehicle id="WE_car.32" type="car" depart="248.80">
        <route edges="E0 E3"/>
    </vehicle>
    <vehicle id="SN_car.33" type="car" depart="250.07">
        <route edges="-E3 E1"/>
    </vehicle>
    <vehicle id="NS_car.31" type="car" depart="253.05">
        <route edges="-E2 E1"/>
    </vehicle>
    <vehicle id="EW_car.31" type="car" depart="254.20">
        <route edges="-E1 E2"/>
    </vehicle>
    <vehicle id="WE_car.33" type="car" depart="256.58">
        <route edges="E0 E2"/>
    </vehicle>
    <vehicle id="SN_car.34" type="car" depart="257.65">
        <route edges="-E3 -E0"/>
    </vehicle>
    <vehicle id="NS_car.32" type="car" depart="261.22">
        <route edges="-E2 E1"/>
    </vehicle>
    <vehicle id="EW_car.32" type="car" depart="262.40">
        <route edges="-E1 E3"/>
    </vehicle>
    <vehicle id="WE_car.34" type="car" depart="264.35">
        <route edges="E0 E2"/>
    </vehicle>
    <vehicle id="SN_car.35" type="car" depart="265.23">
        <route edges="-E3 E1"/>
    </vehicle>
    <vehicle id="NS_car.33" type="car" depart="269.38">
        <route edges="-E2 E1"/>
    </vehicle>
    <vehicle id="EW_car.33" type="car" depart="270.60">
        <route edges="-E1 E3"/>
    </vehicle>
    <vehicle id="WE_car.35" type="car" depart="272.13">
        <route edges="E0 E3"/>
    </vehicle>
    <vehicle id="SN_car.36" type="car" depart="272.81">
        <route edges="-E3 E2"/>
    </vehicle>
    <vehicle id="NS_car.34" type="car" depart="277.54">
        <route edges="-E2 E3"/>
    </vehicle>
    <vehicle id="EW_car.34" type="car" depart="278.80">
        <route edges="-E1 E3"/>
    </vehicle>
    <vehicle id="WE_car.36" type="car" depart="279.90">
        <route edges="E0 E1"/>
    </vehicle>
    <vehicle id="SN_car.37" type="car" depart="280.39">
        <route edges="-E3 E2"/>
    </vehicle>
    <vehicle id="NS_car.35" type="car" depart="285.71">
        <route edges="-E2 E3"/>
    </vehicle>
    <vehicle id="EW_car.35" type="car" depart="287.00">
        <route edges="-E1 E2"/>
    </vehicle>
    <vehicle id="WE_car.37" type="car" depart="287.68">
        <route edges="E0 E3"/>
    </vehicle>
    <vehicle id="SN_car.38" type="car" depart="287.96">
        <route edges="-E3 -E0"/>
    </vehicle>
    <vehicle id="NS_car.36" type="car" depart="293.87">
        <route edges="-E2 E1"/>
    </vehicle>
    <vehicle id="EW_car.36" type="car" depart="295.20">
        <route edges="-E1 E3"/>
    </vehicle>
    <vehicle id="WE_car.38" type="car" depart="295.45">
        <route edges="E0 E1"/>
    </vehicle>
    <vehicle id="SN_car.39" type="car" depart="295.54">
        <route edges="-E3 E1"/>
    </vehicle>
    <vehicle id="NS_car.37" type="car" depart="302.03">
        <route edges="-E2 -E0"/>
    </vehicle>
    <vehicle id="SN_car.40" type="car" depart="303.12">
        <route edges="-E3 E2"/>
    </vehicle>
    <vehicle id="WE_car.39" type="car" depart="303.23">
        <route edges="E0 E3"/>
    </vehicle>
    <vehicle id="EW_car.37" type="car" depart="303.40">
        <route edges="-E1 -E0"/>
    </vehicle>
    <vehicle id="NS_car.38" type="car" depart="310.19">
        <route edges="-E2 E1"/>
    </vehicle>
    <vehicle id="SN_car.41" type="car" depart="310.70">
        <route edges="-E3 E2"/>
    </vehicle>
    <vehicle id="WE_car.40" type="car" depart="311.00">
        <route edges="E0 E1"/>
    </vehicle>
    <vehicle id="EW_car.38" type="car" depart="311.60">
        <route edges="-E1 -E0"/>
    </vehicle>
    <vehicle id="SN_car.42" type="car" depart="318.28">
        <route edges="-E3 E2"/>
    </vehicle>
    <vehicle id="NS_car.39" type="car" depart="318.36">
        <route edges="-E2 E3"/>
    </vehicle>
    <vehicle id="WE_car.41" type="car" depart="318.78">
        <route edges="E0 E1"/>
    </vehicle>
    <vehicle id="EW_car.39" type="car" depart="319.80">
        <route edges="-E1 E3"/>
    </vehicle>
    <vehicle id="SN_car.43" type="car" depart="325.85">
        <route edges="-E3 E1"/>
    </vehicle>
    <vehicle id="NS_car.40" type="car" depart="326.52">
        <route edges="-E2 E3"/>
    </vehicle>
    <vehicle id="WE_car.42" type="car" depart="326.55">
        <route edges="E0 E3"/>
    </vehicle>
    <vehicle id="EW_car.40" type="car" depart="328.00">
        <route edges="-E1 E2"/>
    </vehicle>
    <vehicle id="SN_car.44" type="car" depart="333.43">
        <route edges="-E3 E2"/>
    </vehicle>
    <vehicle id="WE_car.43" type="car" depart="334.33">
        <route edges="E0 E1"/>
    </vehicle>
    <vehicle id="NS_car.41" type="car" depart="334.68">
        <route edges="-E2 E1"/>
    </vehicle>
    <vehicle id="EW_car.41" type="car" depart="336.20">
        <route edges="-E1 -E0"/>
    </vehicle>
    <vehicle id="SN_car.45" type="car" depart="341.01">
        <route edges="-E3 E1"/>
    </vehicle>
    <vehicle id="WE_car.44" type="car" depart="342.10">
        <route edges="E0 E1"/>
    </vehicle>
    <vehicle id="NS_car.42" type="car" depart="342.85">
        <route edges="-E2 E3"/>
    </vehicle>
    <vehicle id="EW_car.42" type="car" depart="344.40">
        <route edges="-E1 E2"/>
    </vehicle>
    <vehicle id="SN_car.46" type="car" depart="348.59">
        <route edges="-E3 E1"/>
    </vehicle>
    <vehicle id="WE_car.45" type="car" depart="349.88">
        <route edges="E0 E3"/>
    </vehicle>
    <vehicle id="NS_car.43" type="car" depart="351.01">
        <route edges="-E2 E1"/>
    </vehicle>
    <vehicle id="EW_car.43" type="car" depart="352.60">
        <route edges="-E1 E3"/>
    </vehicle>
    <vehicle id="SN_car.47" type="car" depart="356.17">
        <route edges="-E3 -E0"/>
    </vehicle>
    <vehicle id="WE_car.46" type="car" depart="357.65">
        <route edges="E0 E3"/>
    </vehicle>
    <vehicle id="NS_car.44" type="car" depart="359.17">
        <route edges="-E2 E1"/>
    </vehicle>
    <vehicle id="EW_car.44" type="car" depart="360.80">
        <route edges="-E1 -E0"/>
    </vehicle>
    <vehicle id="SN_car.48" type="car" depart="363.74">
        <route edges="-E3 -E0"/>
    </vehicle>
    <vehicle id="WE_car.47" type="car" depart="365.43">
        <route edges="E0 E1"/>
    </vehicle>
    <vehicle id="NS_car.45" type="car" depart="367.34">
        <route edges="-E2 E1"/>
    </vehicle>
    <vehicle id="EW_car.45" type="car" depart="369.00">
        <route edges="-E1 E3"/>
    </vehicle>
    <vehicle id="SN_car.49" type="car" depart="371.32">
        <route edges="-E3 E1"/>
    </vehicle>
    <vehicle id="WE_car.48" type="car" depart="373.20">
        <route edges="E0 E1"/>
    </vehicle>
    <vehicle id="NS_car.46" type="car" depart="375.50">
        <route edges="-E2 E3"/>
    </vehicle>
    <vehicle id="EW_car.46" type="car" depart="377.20">
        <route edges="-E1 E2"/>
    </vehicle>
    <vehicle id="SN_car.50" type="car" depart="378.90">
        <route edges="-E3 -E0"/>
    </vehicle>
    <vehicle id="WE_car.49" type="car" depart="380.98">
        <route edges="E0 E1"/>
    </vehicle>
    <vehicle id="NS_car.47" type="car" depart="383.66">
        <route edges="-E2 E3"/>
    </vehicle>
    <vehicle id="EW_car.47" type="car" depart="385.40">
        <route edges="-E1 -E0"/>
    </vehicle>
    <vehicle id="SN_car.51" type="car" depart="386.48">
        <route edges="-E3 E2"/>
    </vehicle>
    <vehicle id="WE_car.50" type="car" depart="388.75">
        <route edges="E0 E2"/>
    </vehicle>
    <vehicle id="NS_car.48" type="car" depart="391.82">
        <route edges="-E2 E3"/>
    </vehicle>
    <vehicle id="EW_car.48" type="car" depart="393.60">
        <route edges="-E1 E2"/>
    </vehicle>
    <vehicle id="SN_car.52" type="car" depart="394.06">
        <route edges="-E3 -E0"/>
    </vehicle>
    <vehicle id="WE_car.51" type="car" depart="396.53">
        <route edges="E0 E2"/>
    </vehicle>
    <vehicle id="NS_car.49" type="car" depart="399.99">
        <route edges="-E2 -E0"/>
    </vehicle>
    <vehicle id="SN_car.53" type="car" depart="401.63">
        <route edges="-E3 E2"/>
    </vehicle>
    <vehicle id="EW_car.49" type="car" depart="401.80">
        <route edges="-E1 E3"/>
    </vehicle>
    <vehicle id="WE_car.52" type="car" depart="404.30">
        <route edges="E0 E3"/>
    </vehicle>
    <vehicle id="NS_car.50" type="car" depart="408.15">
        <route edges="-E2 E1"/>
    </vehicle>
    <vehicle id="SN_car.54" type="car" depart="409.21">
        <route edges="-E3 E1"/>
    </vehicle>
    <vehicle id="EW_car.50" type="car" depart="410.00">
        <route edges="-E1 -E0"/>
    </vehicle>
    <vehicle id="WE_car.53" type="car" depart="412.08">
        <route edges="E0 E2"/>
    </vehicle>
    <vehicle id="NS_car.51" type="car" depart="416.31">
        <route edges="-E2 -E0"/>
    </vehicle>
    <vehicle id="SN_car.55" type="car" depart="416.79">
        <route edges="-E3 E1"/>
    </vehicle>
    <vehicle id="EW_car.51" type="car" depart="418.20">
        <route edges="-E1 E3"/>
    </vehicle>
    <vehicle id="WE_car.54" type="car" depart="419.85">
        <route edges="E0 E3"/>
    </vehicle>
    <vehicle id="SN_car.56" type="car" depart="424.37">
        <route edges="-E3 E2"/>
    </vehicle>
    <vehicle id="NS_car.52" type="car" depart="424.48">
        <route edges="-E2 E1"/>
    </vehicle>
    <vehicle id="EW_car.52" type="car" depart="426.40">
        <route edges="-E1 E3"/>
    </vehicle>
    <vehicle id="WE_car.55" type="car" depart="427.63">
        <route edges="E0 E1"/>
    </vehicle>
    <vehicle id="SN_car.57" type="car" depart="431.95">
        <route edges="-E3 -E0"/>
    </vehicle>
    <vehicle id="NS_car.53" type="car" depart="432.64">
        <route edges="-E2 E1"/>
    </vehicle>
    <vehicle id="EW_car.53" type="car" depart="434.60">
        <route edges="-E1 -E0"/>
    </vehicle>
    <vehicle id="WE_car.56" type="car" depart="435.40">
        <route edges="E0 E2"/>
    </vehicle>
    <vehicle id="SN_car.58" type="car" depart="439.52">
        <route edges="-E3 -E0"/>
    </vehicle>
    <vehicle id="NS_car.54" type="car" depart="440.80">
        <route edges="-E2 E1"/>
    </vehicle>
    <vehicle id="EW_car.54" type="car" depart="442.80">
        <route edges="-E1 E3"/>
    </vehicle>
    <vehicle id="WE_car.57" type="car" depart="443.18">
        <route edges="E0 E3"/>
    </vehicle>
    <vehicle id="SN_car.59" type="car" depart="447.10">
        <route edges="-E3 -E0"/>
    </vehicle>
    <vehicle id="NS_car.55" type="car" depart="448.97">
        <route edges="-E2 E3"/>
    </vehicle>
    <vehicle id="WE_car.58" type="car" depart="450.95">
        <route edges="E0 E1"/>
    </vehicle>
    <vehicle id="EW_car.55" type="car" depart="451.00">
        <route edges="-E1 -E0"/>
    </vehicle>
    <vehicle id="SN_car.60" type="car" depart="454.68">
        <route edges="-E3 E1"/>
    </vehicle>
    <vehicle id="NS_car.56" type="car" depart="457.13">
        <route edges="-E2 E1"/>
    </vehicle>
    <vehicle id="WE_car.59" type="car" depart="458.73">
        <route edges="E0 E1"/>
    </vehicle>
    <vehicle id="EW_car.56" type="car" depart="459.20">
        <route edges="-E1 E2"/>
    </vehicle>
    <vehicle id="SN_car.61" type="car" depart="462.26">
        <route edges="-E3 E2"/>
    </vehicle>
    <vehicle id="NS_car.57" type="car" depart="465.29">
        <route edges="-E2 E3"/>
    </vehicle>
    <vehicle id="WE_car.60" type="car" depart="466.50">
        <route edges="E0 E1"/>
    </vehicle>
    <vehicle id="EW_car.57" type="car" depart="467.40">
        <route edges="-E1 E3"/>
    </vehicle>
    <vehicle id="SN_car.62" type="car" depart="469.84">
        <route edges="-E3 E1"/>
    </vehicle>
    <vehicle id="NS_car.58" type="car" depart="473.45">
        <route edges="-E2 -E0"/>
    </vehicle>
    <vehicle id="WE_car.61" type="car" depart="474.28">
        <route edges="E0 E1"/>
    </vehicle>
    <vehicle id="EW_car.58" type="car" depart="475.60">
        <route edges="-E1 E3"/>
    </vehicle>
    <vehicle id="SN_car.63" type="car" depart="477.41">
        <route edges="-E3 -E0"/>
    </vehicle>
    <vehicle id="NS_car.59" type="car" depart="481.62">
        <route edges="-E2 -E0"/>
    </vehicle>
    <vehicle id="WE_car.62" type="car" depart="482.05">
        <route edges="E0 E1"/>
    </vehicle>
    <vehicle id="EW_car.59" type="car" depart="483.80">
        <route edges="-E1 E3"/>
    </vehicle>
    <vehicle id="SN_car.64" type="car" depart="484.99">
        <route edges="-E3 -E0"/>
    </vehicle>
    <vehicle id="NS_car.60" type="car" depart="489.78">
        <route edges="-E2 E1"/>
    </vehicle>
    <vehicle id="WE_car.63" type="car" depart="489.83">
        <route edges="E0 E1"/>
    </vehicle>
    <vehicle id="EW_car.60" type="car" depart="492.00">
        <route edges="-E1 -E0"/>
    </vehicle>
    <vehicle id="SN_car.65" type="car" depart="492.57">
        <route edges="-E3 E2"/>
    </vehicle>
    <vehicle id="WE_car.64" type="car" depart="497.60">
        <route edges="E0 E2"/>
    </vehicle>
    <vehicle id="NS_car.61" type="car" depart="497.94">
        <route edges="-E2 E1"/>
    </vehicle>
    <vehicle id="SN_car.66" type="car" depart="500.15">
        <route edges="-E3 E1"/>
    </vehicle>
    <vehicle id="EW_car.61" type="car" depart="500.20">
        <route edges="-E1 E2"/>
    </vehicle>
    <vehicle id="WE_car.65" type="car" depart="505.38">
        <route edges="E0 E3"/>
    </vehicle>
    <vehicle id="NS_car.62" type="car" depart="506.11">
        <route edges="-E2 E3"/>
    </vehicle>
    <vehicle id="SN_car.67" type="car" depart="507.73">
        <route edges="-E3 E1"/>
    </vehicle>
    <vehicle id="EW_car.62" type="car" depart="508.40">
        <route edges="-E1 E2"/>
    </vehicle>
    <vehicle id="WE_car.66" type="car" depart="513.15">
        <route edges="E0 E1"/>
    </vehicle>
    <vehicle id="NS_car.63" type="car" depart="514.27">
        <route edges="-E2 E3"/>
    </vehicle>
    <vehicle id="SN_car.68" type="car" depart="515.30">
        <route edges="-E3 -E0"/>
    </vehicle>
    <vehicle id="EW_car.63" type="car" depart="516.60">
        <route edges="-E1 -E0"/>
    </vehicle>
    <vehicle id="WE_car.67" type="car" depart="520.93">
        <route edges="E0 E1"/>
    </vehicle>
    <vehicle id="NS_car.64" type="car" depart="522.43">
        <route edges="-E2 E1"/>
    </vehicle>
    <vehicle id="SN_car.69" type="car" depart="522.88">
        <route edges="-E3 E2"/>
    </vehicle>
    <vehicle id="EW_car.64" type="car" depart="524.80">
        <route edges="-E1 -E0"/>
    </vehicle>
    <vehicle id="WE_car.68" type="car" depart="528.70">
        <route edges="E0 E3"/>
    </vehicle>
    <vehicle id="SN_car.70" type="car" depart="530.46">
        <route edges="-E3 E2"/>
    </vehicle>
    <vehicle id="NS_car.65" type="car" depart="530.60">
        <route edges="-E2 E1"/>
    </vehicle>
    <vehicle id="EW_car.65" type="car" depart="533.00">
        <route edges="-E1 -E0"/>
    </vehicle>
    <vehicle id="WE_car.69" type="car" depart="536.48">
        <route edges="E0 E3"/>
    </vehicle>
    <vehicle id="SN_car.71" type="car" depart="538.04">
        <route edges="-E3 E2"/>
    </vehicle>
    <vehicle id="NS_car.66" type="car" depart="538.76">
        <route edges="-E2 -E0"/>
    </vehicle>
    <vehicle id="EW_car.66" type="car" depart="541.20">
        <route edges="-E1 E2"/>
    </vehicle>
    <vehicle id="WE_car.70" type="car" depart="544.25">
        <route edges="E0 E3"/>
    </vehicle>
    <vehicle id="SN_car.72" type="car" depart="545.62">
        <route edges="-E3 E2"/>
    </vehicle>
    <vehicle id="NS_car.67" type="car" depart="546.92">
        <route edges="-E2 E3"/>
    </vehicle>
    <vehicle id="EW_car.67" type="car" depart="549.40">
        <route edges="-E1 E3"/>
    </vehicle>
    <vehicle id="WE_car.71" type="car" depart="552.03">
        <route edges="E0 E1"/>
    </vehicle>
    <vehicle id="SN_car.73" type="car" depart="553.19">
        <route edges="-E3 E1"/>
    </vehicle>
    <vehicle id="NS_car.68" type="car" depart="555.08">
        <route edges="-E2 E1"/>
    </vehicle>
    <vehicle id="EW_car.68" type="car" depart="557.60">
        <route edges="-E1 E2"/>
    </vehicle>