<?xml version="1.0" encoding="UTF-8"?>

<!-- generated on 2026-05-23 19:30:51 by Eclipse SUMO jtrrouter Version 1.23.1
<jtrrouterConfiguration xmlns:xsi="http://www.w3.org/2001/XMLSchema-instance" xsi:noNamespaceSchemaLocation="http://sumo.dlr.de/xsd/jtrrouterConfiguration.xsd">

    <input>
        <net-file value="demo_14.net.xml"/>
        <route-files value="demo_14.flow.xml"/>
        <turn-ratio-files value="demo_14.turn.xml"/>
    </input>

    <output>
        <output-file value="demo_14.rou.xml"/>
    </output>

    <time>
        <begin value="0"/>
        <end value="3600"/>
    </time>

</jtrrouterConfiguration>
-->

<routes xmlns:xsi="http://www.w3.org/2001/XMLSchema-instance" xsi:noNamespaceSchemaLocation="http://sumo.dlr.de/xsd/routes_file.xsd">
    <vType id="car" maxSpeed="37.00" vClass="passenger"/>
    <vehicle id="EW_car.0" type="car" depart="0.00">
        <route edges="-E1 E2"/>
    </vehicle>
    <vehicle id="NS_car.0" type="car" depart="0.00">
        <route edges="-E3 E0 E1"/>
    </vehicle>
    <vehicle id="SN_car.0" type="car" depart="0.00">
        <route edges="-E2 E1"/>
    </vehicle>
    <vehicle id="EW_car.1" type="car" depart="7.03">
        <route edges="-E1 E2"/>
    </vehicle>
    <vehicle id="NS_car.1" type="car" depart="7.52">
        <route edges="-E3 E0 E2"/>
    </vehicle>
    <vehicle id="SN_car.1" type="car" depart="8.89">
        <route edges="-E2 -E0 E3"/>
    </vehicle>
    <vehicle id="EW_car.2" type="car" depart="14.06">
        <route edges="-E1 E2"/>
    </vehicle>
    <vehicle id="NS_car.2" type="car" depart="15.03">
        <route edges="-E3 E0 E2"/>
    </vehicle>
    <vehicle id="SN_car.2" type="car" depart="17.78">
        <route edges="-E2 E1"/>
    </vehicle>
    <vehicle id="EW_car.3" type="car" depart="21.09">
        <route edges="-E1 E2"/>
    </vehicle>
    <vehicle id="NS_car.3" type="car" depart="22.55">
        <route edges="-E3 E0 E1"/>
    </vehicle>
    <vehicle id="SN_car.3" type="car" depart="26.66">
        <route edges="-E2 -E0 E3"/>
    </vehicle>
    <vehicle id="EW_car.4" type="car" depart="28.12">
        <route edges="-E1 E2"/>
    </vehicle>
    <vehicle id="NS_car.4" type="car" depart="30.06">
        <route edges="-E3 E0 E1"/>
    </vehicle>
    <vehicle id="EW_car.5" type="car" depart="35.16">
        <route edges="-E1 E2"/>
    </vehicle>
    <vehicle id="SN_car.4" type="car" depart="35.55">
        <route edges="-E2 -E0 E3"/>
    </vehicle>
    <vehicle id="NS_car.5" type="car" depart="37.58">
        <route edges="-E3 E0 E2"/>
    </vehicle>
    <vehicle id="EW_car.6" type="car" depart="42.19">
        <route edges="-E1 E2"/>
    </vehicle>
    <vehicle id="SN_car.5" type="car" depart="44.44">
        <route edges="-E2 -E0 E3"/>
    </vehicle>
    <vehicle id="NS_car.6" type="car" depart="45.09">
        <route edges="-E3 E0 E1"/>
    </vehicle>
    <vehicle id="EW_car.7" type="car" depart="49.22">
        <route edges="-E1 E2"/>
    </vehicle>
    <vehicle id="NS_car.7" type="car" depart="52.61">
        <route edges="-E3 E0 E1"/>
    </vehicle>
    <vehicle id="SN_car.6" type="car" depart="53.33">
        <route edges="-E2 E1"/>
    </vehicle>
    <vehicle id="EW_car.8" type="car" depart="56.25">
        <route edges="-E1 -E0 E3"/>
    </vehicle>
    <vehicle id="NS_car.8" type="car" depart="60.12">
        <route edges="-E3 E0 E1"/>
    </vehicle>
    <vehicle id="SN_car.7" type="car" depart="62.22">
        <route edges="-E2 -E0 E3"/>
    </vehicle>
    <vehicle id="EW_car.9" type="car" depart="63.28">
        <route edges="-E1 E2"/>
    </vehicle>
    <vehicle id="NS_car.9" type="car" depart="67.64">
        <route edges="-E3 E0 E1"/>
    </vehicle>
    <vehicle id="EW_car.10" type="car" depart="70.31">
        <route edges="-E1 -E0 E3"/>
    </vehicle>
    <vehicle id="SN_car.8" type="car" depart="71.10">
        <route edges="-E2 -E0 E3"/>
    </vehicle>
    <vehicle id="NS_car.10" type="car" depart="75.15">
        <route edges="-E3 E0 E2"/>
    </vehicle>
    <vehicle id="EW_car.11" type="car" depart="77.34">
        <route edges="-E1 E2"/>
    </vehicle>
    <vehicle id="SN_car.9" type="car" depart="79.99">
        <route edges="-E2 E1"/>
    </vehicle>
    <vehicle id="NS_car.11" type="car" depart="82.67">
        <route edges="-E3 E0 E2"/>
    </vehicle>
    <vehicle id="EW_car.12" type="car" depart="84.37">
        <route edges="-E1 E2"/>
    </vehicle>
    <vehicle id="SN_car.10" type="car" depart="88.88">
        <route edges="-E2 -E0 E3"/>
    </vehicle>
    <vehicle id="NS_car.12" type="car" depart="90.18">
        <route edges="-E3 E0 E1"/>
    </vehicle>
    <vehicle id="EW_car.13" type="car" depart="91.40">
        <route edges="-E1 E2"/>
    </vehicle>
    <vehicle id="NS_car.13" type="car" depart="97.70">
        <route edges="-E3 E0 E2"/>
    </vehicle>
    <vehicle id="SN_car.11" type="car" depart="97.77">
        <route edges="-E2 -E0 E3"/>
    </vehicle>
    <vehicle id="EW_car.14" type="car" depart="98.43">
        <route edges="-E1 -E0 E3"/>
    </vehicle>
    <vehicle id="NS_car.14" type="car" depart="105.21">
        <route edges="-E3 E0 E1"/>
    </vehicle>
    <vehicle id="EW_car.15" type="car" depart="105.47">
        <route edges="-E1 -E0 E3"/>
    </vehicle>
    <vehicle id="SN_car.12" type="car" depart="106.66">
        <route edges="-E2 -E0 E3"/>
    </vehicle>
    <vehicle id="EW_car.16" type="car" depart="112.50">
        <route edges="-E1 -E0 E3"/>
    </vehicle>
    <vehicle id="NS_car.15" type="car" depart="112.73">
        <route edges="-E3 E0 E1"/>
    </vehicle>
    <vehicle id="SN_car.13" type="car" depart="115.54">
        <route edges="-E2 -E0 E3"/>
    </vehicle>
    <vehicle id="EW_car.17" type="car" depart="119.53">
        <route edges="-E1 E2"/>
    </vehicle>
    <vehicle id="NS_car.16" type="car" depart="120.24">
        <route edges="-E3 E0 E1"/>
    </vehicle>
    <vehicle id="SN_car.14" type="car" depart="124.43">
        <route edges="-E2 -E0 E3"/>
    </vehicle>
    <vehicle id="EW_car.18" type="car" depart="126.56">
        <route edges="-E1 E2"/>
    </vehicle>
    <vehicle id="NS_car.17" type="car" depart="127.76">
        <route edges="-E3 E0 E1"/>
    </vehicle>
    <vehicle id="SN_car.15" type="car" depart="133.32">
        <route edges="-E2 E1"/>
    </vehicle>
    <vehicle id="EW_car.19" type="car" depart="133.59">
        <route edges="-E1 E2"/>
    </vehicle>
    <vehicle id="NS_car.18" type="car" depart="135.27">
        <route edges="-E3 E0 E1"/>
    </vehicle>
    <vehicle id="EW_car.20" type="car" depart="140.62">
        <route edges="-E1 E2"/>
    </vehicle>
    <vehicle id="SN_car.16" type="car" depart="142.21">
        <route edges="-E2 E1"/>
    </vehicle>
    <vehicle id="NS_car.19" type="car" depart="142.79">
        <route edges="-E3 E0 E1"/>
    </vehicle>
    <vehicle id="EW_car.21" type="car" depart="147.65">
        <route edges="-E1 -E0 E3"/>
    </vehicle>
    <vehicle id="NS_car.20" type="car" depart="150.30">
        <route edges="-E3 E0 E2"/>
    </vehicle>
    <vehicle id="SN_car.17" type="car" depart="151.10">
        <route edges="-E2 E1"/>
    </vehicle>
    <vehicle id="EW_car.22" type="car" depart="154.68">
        <route edges="-E1 E2"/>
    </vehicle>
    <vehicle id="NS_car.21" type="car" depart="157.82">
        <route edges="-E3 E0 E1"/>
    </vehicle>
    <vehicle id="SN_car.18" type="car" depart="159.98">
        <route edges="-E2 E1"/>
    </vehicle>
    <vehicle id="EW_car.23" type="car" depart="161.71">
        <route edges="-E1 E2"/>
    </vehicle>
    <vehicle id="NS_car.22" type="car" depart="165.33">
        <route edges="-E3 E0 E1"/>
    </vehicle>
    <vehicle id="EW_car.24" type="car" depart="168.74">
        <route edges="-E1 E2"/>
    </vehicle>
    <vehicle id="SN_car.19" type="car" depart="168.87">
        <route edges="-E2 -E0 E3"/>
    </vehicle>
    <vehicle id="NS_car.23" type="car" depart="172.85">
        <route edges="-E3 E0 E1"/>
    </vehicle>
    <vehicle id="EW_car.25" type="car" depart="175.78">
        <route edges="-E1 E2"/>
    </vehicle>
    <vehicle id="SN_car.20" type="car" depart="177.76">
        <route edges="-E2 E1"/>
    </vehicle>
    <vehicle id="NS_car.24" type="car" depart="180.36">
        <route edges="-E3 E0 E2"/>
    </vehicle>
    <vehicle id="EW_car.26" type="car" depart="182.81">
        <route edges="-E1 -E0 E3"/>
    </vehicle>
    <vehicle id="SN_car.21" type="car" depart="186.65">
        <route edges="-E2 -E0 E3"/>
    </vehicle>
    <vehicle id="NS_car.25" type="car" depart="187.88">
        <route edges="-E3 E0 E1"/>
    </vehicle>
    <vehicle id="EW_car.27" type="car" depart="189.84">
        <route edges="-E1 -E0 E3"/>
    </vehicle>
    <vehicle id="NS_car.26" type="car" depart="195.39">
        <route edges="-E3 E0 E2"/>
    </vehicle>
    <vehicle id="SN_car.22" type="car" depart="195.54">
        <route edges="-E2 E1"/>
    </vehicle>
    <vehicle id="EW_car.28" type="car" depart="196.87">
        <route edges="-E1 -E0 E3"/>
    </vehicle>
    <vehicle id="NS_car.27" type="car" depart="202.91">
        <route edges="-E3 E0 E2"/>
    </vehicle>
    <vehicle id="EW_car.29" type="car" depart="203.90">
        <route edges="-E1 E2"/>
    </vehicle>
    <vehicle id="SN_car.23" type="car" depart="204.42">
        <route edges="-E2 E1"/>
    </vehicle>
    <vehicle id="NS_car.28" type="car" depart="210.42">
        <route edges="-E3 E0 E1"/>
    </vehicle>
    <vehicle id="EW_car.30" type="car" depart="210.93">
        <route edges="-E1 E2"/>
    </vehicle>
    <vehicle id="SN_car.24" type="car" depart="213.31">
        <route edges="-E2 E1"/>
    </vehicle>
    <vehicle id="NS_car.29" type="car" depart="217.94">
        <route edges="-E3 E0 E1"/>
    </vehicle>
    <vehicle id="EW_car.31" type="car" depart="217.96">
        <route edges="-E1 E2"/>
    </vehicle>
    <vehicle id="SN_car.25" type="car" depart="222.20">
        <route edges="-E2 E1"/>
    </vehicle>
    <vehicle id="EW_car.32" type="car" depart="224.99">
        <route edges="-E1 E2"/>
    </vehicle>
    <vehicle id="NS_car.30" type="car" depart="225.45">
        <route edges="-E3 E0 E2"/>
    </vehicle>
    <vehicle id="SN_car.26" type="car" depart="231.09">
        <route edges="-E2 -E0 E3"/>
    </vehicle>
    <vehicle id="EW_car.33" type="car" depart="232.02">
        <route edges="-E1 E2"/>
    </vehicle>
    <vehicle id="NS_car.31" type="car" depart="232.97">
        <route edges="-E3 E0 E2"/>
    </vehicle>
    <vehicle id="EW_car.34" type="car" depart="239.05">
        <route edges="-E1 -E0 E3"/>
    </vehicle>
    <vehicle id="SN_car.27" type="car" depart="239.98">
        <route edges="-E2 E1"/>
    </vehicle>
    <vehicle id="NS_car.32" type="car" depart="240.48">
        <route edges="-E3 E0 E1"/>
    </vehicle>
    <vehicle id="EW_car.35" type="car" depart="246.09">
        <route edges="-E1 -E0 E3"/>
    </vehicle>
    <vehicle id="NS_car.33" type="car" depart="248.00">
        <route edges="-E3 E0 E1"/>
    </vehicle>
    <vehicle id="SN_car.28" type="car" depart="248.86">
        <route edges="-E2 E1"/>
    </vehicle>
    <vehicle id="EW_car.36" type="car" depart="253.12">
        <route edges="-E1 E2"/>
    </vehicle>
    <vehicle id="NS_car.34" type="car" depart="255.51">
        <route edges="-E3 E0 E1"/>
    </vehicle>
    <vehicle id="SN_car.29" type="car" depart="257.75">
        <route edges="-E2 E1"/>
    </vehicle>
    <vehicle id="EW_car.37" type="car" depart="260.15">
        <route edges="-E1 E2"/>
    </vehicle>
    <vehicle id="NS_car.35" type="car" depart="263.03">
        <route edges="-E3 E0 E2"/>
    </vehicle>
    <vehicle id="SN_car.30" type="car" depart="266.64">
        <route edges="-E2 E1"/>
    </vehicle>
    <vehicle id="EW_car.38" type="car" depart="267.18">
        <route edges="-E1 E2"/>
    </vehicle>
    <vehicle id="NS_car.36" type="car" depart="270.54">
        <route edges="-E3 E0 E1"/>
    </vehicle>
    <vehicle id="EW_car.39" type="car" depart="274.21">
        <route edges="-E1 E2"/>
    </vehicle>
    <vehicle id="SN_car.31" type="car" depart="275.53">
        <route edges="-E2 -E0 E3"/>
    </vehicle>
    <vehicle id="NS_car.37" type="car" depart="278.06">
        <route edges="-E3 E0 E1"/>
    </vehicle>
    <vehicle id="EW_car.40" type="car" depart="281.24">
        <route edges="-E1 E2"/>
    </vehicle>
    <vehicle id="SN_car.32" type="car" depart="284.42">
        <route edges="-E2 E1"/>
    </vehicle>
    <vehicle id="NS_car.38" type="car" depart="285.57">
        <route edges="-E3 E0 E1"/>
    </vehicle>
    <vehicle id="EW_car.41" type="car" depart="288.27">
        <route edges="-E1 E2"/>
    </vehicle>
    <vehicle id="NS_car.39" type="car" depart="293.09">
        <route edges="-E3 E0 E2"/>
    </vehicle>
    <vehicle id="SN_car.33" type="car" depart="293.30">
        <route edges="-E2 -E0 E3"/>
    </vehicle>
    <vehicle id="EW_car.42" type="car" depart="295.30">
        <route edges="-E1 -E0 E3"/>
    </vehicle>
    <vehicle id="NS_car.40" type="car" depart="300.60">
        <route edges="-E3 E0 E1"/>
    </vehicle>
    <vehicle id="SN_car.34" type="car" depart="302.19">
        <route edges="-E2 -E0 E3"/>
    </vehicle>
    <vehicle id="EW_car.43" type="car" depart="302.33">
        <route edges="-E1 E2"/>
    </vehicle>
    <vehicle id="NS_car.41" type="car" depart="308.12">
        <route edges="-E3 E0 E2"/>
    </vehicle>
    <vehicle id="EW_car.44" type="car" depart="309.36">
        <route edges="-E1 E2"/>
    </vehicle>
    <vehicle id="SN_car.35" type="car" depart="311.08">
        <route edges="-E2 -E0 E3"/>
    </vehicle>
    <vehicle id="NS_car.42" type="car" depart="315.63">
        <route edges="-E3 E0 E1"/>
    </vehicle>
    <vehicle id="EW_car.45" type="car" depart="316.40">
        <route edges="-E1 E2"/>
    </vehicle>
    <vehicle id="SN_car.36" type="car" depart="319.97">
        <route edges="-E2 E1"/>
    </vehicle>
    <vehicle id="NS_car.43" type="car" depart="323.15">
        <route edges="-E3 E0 E1"/>
    </vehicle>
    <vehicle id="EW_car.46" type="car" depart="323.43">
        <route edges="-E1 -E0 E3"/>
    </vehicle>
    <vehicle id="SN_car.37" type="car" depart="328.86">
        <route edges="-E2 -E0 E3"/>
    </vehicle>
    <vehicle id="EW_car.47" type="car" depart="330.46">
        <route edges="-E1 E2"/>
    </vehicle>
    <vehicle id="NS_car.44" type="car" depart="330.66">
        <route edges="-E3 E0 E1"/>
    </vehicle>
    <vehicle id="EW_car.48" type="car" depart="337.49">
        <route edges="-E1 E2"/>
    </vehicle>
    <vehicle id="SN_car.38" type="car" depart="337.74">
        <route edges="-E2 -E0 E3"/>
    </vehicle>
    <vehicle id="NS_car.45" type="car" depart="338.18">
        <route edges="-E3 E0 E1"/>
    </vehicle>
    <vehicle id="EW_car.49" type="car" depart="344.52">
        <route edges="-E1 E2"/>
    </vehicle>
    <vehicle id="NS_car.46" type="car" depart="345.69">
        <route edges="-E3 E0 E2"/>
    </vehicle>
    <vehicle id="SN_car.39" type="car" depart="346.63">
        <route edges="-E2 -E0 E3"/>
    </vehicle>
    <vehicle id="EW_car.50" type="car" depart="351.55">
        <route edges="-E1 E2"/>
    </vehicle>
    <vehicle id="NS_car.47" type="car" depart="353.21">
        <route edges="-E3 E0 E2"/>
    </vehicle>
    <vehicle id="SN_car.40" type="car" depart="355.52">
        <route edges="-E2 -E0 E3"/>
    </vehicle>
    <vehicle id="EW_car.51" type="car" depart="358.58">
        <route edges="-E1 -E0 E3"/>
    </vehicle>
    <vehicle id="NS_car.48" type="car" depart="360.72">
        <route edges="-E3 E0 E2"/>
    </vehicle>
    <vehicle id="SN_car.41" type="car" depart="364.41">
        <route edges="-E2 -E0 E3"/>
    </vehicle>
    <vehicle id="EW_car.52" type="car" depart="365.61">
        <route edges="-E1 -E0 E3"/>
    </vehicle>
    <vehicle id="NS_car.49" type="car" depart="368.24">
        <route edges="-E3 E0 E1"/>
    </vehicle>
    <vehicle id="EW_car.53" type="car" depart="372.64">
        <route edges="-E1 E2"/>
    </vehicle>
    <vehicle id="SN_car.42" type="car" depart="373.30">
        <route edges="-E2 -E0 E3"/>
    </vehicle>
    <vehicle id="NS_car.50" type="car" depart="375.75">
        <route edges="-E3 E0 E1"/>
    </vehicle>
    <vehicle id="EW_car.54" type="car" depart="379.67">
        <route edges="-E1 E2"/>
    </vehicle>
    <vehicle id="SN_car.43" type="car" depart="382.18">
        <route edges="-E2 -E0 E3"/>
    </vehicle>
    <vehicle id="NS_car.51" type="car" depart="383.27">
        <route edges="-E3 E0 E2"/>
    </vehicle>
    <vehicle id="EW_car.55" type="car" depart="386.71">
        <route edges="-E1 -E0 E3"/>
    </vehicle>
    <vehicle id="NS_car.52" type="car" depart="390.78">
        <route edges="-E3 E0 E2"/>
    </vehicle>
    <vehicle id="SN_car.44" type="car" depart="391.07">
        <route edges="-E2 -E0 E3"/>
    </vehicle>
    <vehicle id="EW_car.56" type="car" depart="393.74">
        <route edges="-E1 -E0 E3"/>
    </vehicle>
    <vehicle id="NS_car.53" type="car" depart="398.30">
        <route edges="-E3 E0 E2"/>
    </vehicle>
    <vehicle id="SN_car.45" type="car" depart="399.96">
        <route edges="-E2 E1"/>
    </vehicle>
    <vehicle id="EW_car.57" type="car" depart="400.77">
        <route edges="-E1 E2"/>
    </vehicle>
    <vehicle id="NS_car.54" type="car" depart="405.81">
        <route edges="-E3 E0 E2"/>
    </vehicle>
    <vehicle id="EW_car.58" type="car" depart="407.80">
        <route edges="-E1 E2"/>
    </vehicle>
    <vehicle id="SN_car.46" type="car" depart="408.85">
        <route edges="-E2 E1"/>
    </vehicle>
    <vehicle id="NS_car.55" type="car" depart="413.33">
        <route edges="-E3 E0 E1"/>
    </vehicle>
    <vehicle id="EW_car.59" type="car" depart="414.83">
        <route edges="-E1 E2"/>
    </vehicle>
    <vehicle id="SN_car.47" type="car" depart="417.74">
        <route edges="-E2 -E0 E3"/>
    </vehicle>
    <vehicle id="NS_car.56" type="car" depart="420.84">
        <route edges="-E3 E0 E1"/>
    </vehicle>
    <vehicle id="EW_car.60" type="car" depart="421.86">
        <route edges="-E1 E2"/>
    </vehicle>
    <vehicle id="SN_car.48" type="car" depart="426.62">
        <route edges="-E2 -E0 E3"/>
    </vehicle>
    <vehicle id="NS_car.57" type="car" depart="428.36">
        <route edges="-E3 E0 E2"/>
    </vehicle>
    <vehicle id="EW_car.61" type="car" depart="428.89">
        <route edges="-E1 -E0 E3"/>
    </vehicle>
    <vehicle id="SN_car.49" type="car" depart="435.51">
        <route edges="-E2 E1"/>
    </vehicle>
    <vehicle id="NS_car.58" type="car" depart="435.87">
        <route edges="-E3 E0 E1"/>
    </vehicle>
    <vehicle id="EW_car.62" type="car" depart="435.92">
        <route edges="-E1 E2"/>
    </vehicle>
    <vehicle id="EW_car.63" type="car" depart="442.95">
        <route edges="-E1 E2"/>
    </vehicle>
    <vehicle id="NS_car.59" type="car" depart="443.39">
        <route edges="-E3 E0 E2"/>
    </vehicle>
    <vehicle id="SN_car.50" type="car" depart="444.40">
        <route edges="-E2 -E0 E3"/>
    </vehicle>
    <vehicle id="EW_car.64" type="car" depart="449.98">
        <route edges="-E1 E2"/>
    </vehicle>
    <vehicle id="NS_car.60" type="car" depart="450.90">
        <route edges="-E3 E0 E1"/>
    </vehicle>
    <vehicle id="SN_car.51" type="car" depart="453.29">
        <route edges="-E2 E1"/>
    </vehicle>
    <vehicle id="EW_car.65" type="car" depart="457.02">
        <route edges="-E1 E2"/>
    </vehicle>
    <vehicle id="NS_car.61" type="car" depart="458.42">
        <route edges="-E3 E0 E2"/>
    </vehicle>
    <vehicle id="SN_car.52" type="car" depart="462.18">
        <route edges="-E2 -E0 E3"/>
    </vehicle>
    <vehicle id="EW_car.66" type="car" depart="464.05">
        <route edges="-E1 E2"/>
    </vehicle>
    <vehicle id="NS_car.62" type="car" depart="465.93">
        <route edges="-E3 E0 E1"/>
    </vehicle>
    <vehicle id="SN_car.53" type="car" depart="471.06">
        <route edges="-E2 E1"/>
    </vehicle>
    <vehicle id="EW_car.67" type="car" depart="471.08">
        <route edges="-E1 E2"/>
    </vehicle>
    <vehicle id="NS_car.63" type="car" depart="473.45">
        <route edges="-E3 E0 E2"/>
    </vehicle>
    <vehicle id="EW_car.68" type="car" depart="478.11">
        <route edges="-E1 E2"/>
    </vehicle>
    <vehicle id="SN_car.54" type="car" depart="479.95">
        <route edges="-E2 E1"/>
    </vehicle>
    <vehicle id="NS_car.64" type="car" depart="480.96">
        <route edges="-E3 E0 E2"/>
    </vehicle>
    <vehicle id="EW_car.69" type="car" depart="485.14">
        <route edges="-E1 E2"/>
    </vehicle>
    <vehicle id="NS_car.65" type="car" depart="488.48">
        <route edges="-E3 E0 E1"/>
    </vehicle>
    <vehicle id="SN_car.55" type="car" depart="488.84">
        <route edges="-E2 E1"/>
    </vehicle>
    <vehicle id="EW_car.70" type="car" depart="492.17">
        <route edges="-E1 E2"/>
    </vehicle>
    <vehicle id="NS_car.66" type="car" depart="495.99">
        <route edges="-E3 E0 E1"/>
    </vehicle>
    <vehicle id="SN_car.56" type="car" depart="497.73">
        <route edges="-E2 E1"/>
    </vehicle>
    <vehicle id="EW_car.71" type="car" depart="499.20">
        <route edges="-E1 E2"/>
    </vehicle>
    <vehicle id="NS_car.67" type="car" depart="503.51">
        <route edges="-E3 E0 E2"/>
    </vehicle>
    <vehicle id="EW_car.72" type="car" depart="506.23">
        <route edges="-E1 E2"/>
    </vehicle>
    <vehicle id="SN_car.57" type="car" depart="506.62">
        <route edges="-E2 -E0 E3"/>
    </vehicle>
    <vehicle id="NS_car.68" type="car" depart="511.02">
        <route edges="-E3 E0 E1"/>
    </vehicle>
    <vehicle id="EW_car.73" type="car" depart="513.26">
        <route edges="-E1 -E0 E3"/>
    </vehicle>
    <vehicle id="SN_car.58" type="car" depart="515.50">
        <route edges="-E2 E1"/>
    </vehicle>
    <vehicle id="NS_car.69" type="car" depart="518.54">
        <route edges="-E3 E0 E2"/>
    </vehicle>
    <vehicle id="EW_car.74" type="car" depart="520.29">
        <route edges="-E1 -E0 E3"/>
    </vehicle>
    <vehicle id="SN_car.59" type="car" depart="524.39">
        <route edges="-E2 E1"/>
    </vehicle>
    <vehicle id="NS_car.70" type="car" depart="526.05">
        <route edges="-E3 E0 E1"/>
    </vehicle>
    <vehicle id="EW_car.75" type="car" depart="527.33">
        <route edges="-E1 E2"/>
    </vehicle>
    <vehicle id="SN_car.60" type="car" depart="533.28">
        <route edges="-E2 -E0 E3"/>
    </vehicle>
    <vehicle id="NS_car.71" type="car" depart="533.57">
        <route edges="-E3 E0 E1"/>
    </vehicle>
    <vehicle id="EW_car.76" type="car" depart="534.36">
        <route edges="-E1 E2"/>
    </vehicle>
    <vehicle id="NS_car.72" type="car" depart="541.08">
        <route edges="-E3 E0 E1"/>
    </vehicle>
    <vehicle id="EW_car.77" type="car" depart="541.39">
        <route edges="-E1 -E0 E3"/>
    </vehicle>
    <vehicle id="SN_car.61" type="car" depart="542.17">
        <route edges="-E2 E1"/>
    </vehicle>
    <vehicle id="EW_car.78" type="car" depart="548.42">
        <route edges="-E1 E2"/>
    </vehicle>
    <vehicle id="NS_car.73" type="car" depart="548.60">
        <route edges="-E3 E0 E2"/>
    </vehicle>
    <vehicle id="SN_car.62" type="car" depart="551.06">
        <route edges="-E2 -E0 E3"/>
    </vehicle>
    <vehicle id="EW_car.79" type="car" depart="555.45">
        <route edges="-E1 E2"/>
    </vehicle>
    <vehicle id="NS_car.74" type="car" depart="556.11">
        <route edges="-E3 E0 E2"/>
    </vehicle>
    <vehicle id="SN_car.63" type="car" depart="559.94">
        <route edges="-E2 -E0 E3"/>
    </vehicle>
    <vehicle id="EW_car.80" type="car" depart="562.48">
        <route edges="-E1 -E0 E3"/>
    </vehicle>
    <vehicle id="NS_car.75" type="car" depart="563.63">
        <route edges="-E3 E0 E1"/>
    </vehicle>
    <vehicle id="SN_car.64" type="car" depart="568.83">
        <route edges="-E2 E1"/>
    </vehicle>
    <vehicle id="EW_car.81" type="car" depart="569.51">
        <route edges="-E1 E2"/>
    </vehicle>
    <vehicle id="NS_car.76" type="car" depart="571.14">
        <route edges="-E3 E0 E2"/>
    </vehicle>
    <vehicle id="EW_car.82" type="car" depart="576.54">
        <route edges="-E1 E2"/>
    </vehicle>
    <vehicle id="SN_car.65" type="car" depart="577.72">
        <route edges="-E2 E1"/>
    </vehicle>
    <vehicle id="NS_car.77" type="car" depart="578.66">
        <route edges="-E3 E0 E2"/>
    </vehicle>
    <vehicle id="EW_car.83" type="car" depart="583.57">
        <route edges="-E1 -E0 E3"/>
    </vehicle>
    <vehicle id="NS_car.78" type="car" depart="586.17">
        <route edges="-E3 E0 E2"/>
    </vehicle>
    <vehicle id="SN_car.66" type="car" depart="586.61">
        <route edges="-E2 -E0 E3"/>
    </vehicle>
    <vehicle id="EW_car.84" type="car" depart="590.60">
        <route edges="-E1 -E0 E3"/>
    </vehicle>
    <vehicle id="NS_car.79" type="car" depart="593.69">
        <route edges="-E3 E0 E1"/>
    </vehicle>
    <vehicle id="SN_car.67" type="car" depart="595.50">
        <route edges="-E2 E1"/>
    </vehicle>
    <vehicle id="EW_car.85" type="car" depart="597.64">
        <route edges="-E1 E2"/>
    </vehicle>
    <vehicle id="NS_car.80" type="car" depart="601.20">
        <route edges="-E3 E0 E1"/>
    </vehicle>
    <vehicle id="SN_car.68" type="car" depart="604.38">
        <route edges="-E2 -E0 E3"/>
    </vehicle>
    <vehicle id="EW_car.86" type="car" depart="604.67">
        <route edges="-E1 E2"/>
    </vehicle>
    <vehicle id="NS_car.81" type="car" depart="608.72">
        <route edges="-E3 E0 E2"/>
    </vehicle>
    <vehicle id="EW_car.87" type="car" depart="611.70">
        <route edges="-E1 E2"/>
    </vehicle>
    <vehicle id="SN_car.69" type="car" depart="613.27">
        <route edges="-E2 E1"/>
    </vehicle>
    <vehicle id="NS_car.82" type="car" depart="616.23">
        <route edges="-E3 E0 E2"/>
    </vehicle>
    <vehicle id="EW_car.88" type="car" depart="618.73">
        <route edges="-E1 E2"/>
    </vehicle>
    <vehicle id="SN_car.70" type="car" depart="622.16">
        <route edges="-E2 E1"/>
    </vehicle>
    <vehicle id="NS_car.83" type="car" depart="623.75">
        <route edges="-E3 E0 E2"/>
    </vehicle>
    <vehicle id="EW_car.89" type="car" depart="625.76">
        <route edges="-E1 E2"/>
    </vehicle>
    <vehicle id="SN_car.71" type="car" depart="631.05">
        <route edges="-E2 E1"/>
    </vehicle>
    <vehicle id="NS_car.84" type="car" depart="631.26">
        <route edges="-E3 E0 E1"/>
    </vehicle>
    <vehicle id="EW_car.90" type="car" depart="632.79">
        <route edges="-E1 E2"/>
    </vehicle>
    <vehicle id="NS_car.85" type="car" depart="638.78">
        <route edges="-E3 E0 E1"/>
    </vehicle>
    <vehicle id="EW_car.91" type="car" depart="639.82">
        <route edges="-E1 -E0 E3"/>
    </vehicle>
    <vehicle id="SN_car.72" type="car" depart="639.94">
        <route edges="-E2 E1"/>
    </vehicle>
    <vehicle id="NS_car.86" type="car" depart="646.29">
        <route edges="-E3 E0 E1"/>
    </vehicle>
    <vehicle id="EW_car.92" type="car" depart="646.85">
        <route edges="-E1 E2"/>
    </vehicle>
    <vehicle id="SN_car.73" type="car" depart="648.82">
        <route edges="-E2 -E0 E3"/>
    </vehicle>
    <vehicle id="NS_car.87" type="car" depart="653.81">
        <route edges="-E3 E0 E2"/>
    </vehicle>
    <vehicle id="EW_car.93" type="car" depart="653.88">
        <route edges="-E1 -E0 E3"/>
    </vehicle>
    <vehicle id="SN_car.74" type="car" depart="657.71">
        <route edges="-E2 -E0 E3"/>
    </vehicle>
    <vehicle id="EW_car.94" type="car" depart="660.91">
        <route edges="-E1 -E0 E3"/>
    </vehicle>
    <vehicle id="NS_car.88" type="car" depart="661.32">
        <route edges="-E3 E0 E2"/>
    </vehicle>
    <vehicle id="SN_car.75" type="car" depart="666.60">
        <route edges="-E2 -E0 E3"/>
    </vehicle>
    <vehicle id="EW_car.95" type="car" depart="667.95">
        <route edges="-E1 E2"/>
    </vehicle>
    <vehicle id="NS_car.89" type="car" depart="668.84">
        <route edges="-E3 E0 E2"/>
    </vehicle>
    <vehicle id="EW_car.96" type="car" depart="674.98">
        <route edges="-E1 E2"/>
    </vehicle>
    <vehicle id="SN_car.76" type="car" depart="675.49">
        <route edges="-E2 E1"/>
    </vehicle>
    <vehicle id="NS_car.90" type="car" depart="676.35">
        <route edges="-E3 E0 E2"/>
    </vehicle>
    <vehicle id="EW_car.97" type="car" depart="682.01">
        <route edges="-E1 E2"/>
    </vehicle>
    <vehicle id="NS_car.91" type="car" depart="683.87">
        <route edges="-E3 E0 E1"/>
    </vehicle>
    <vehicle id="SN_car.77" type="car" depart="684.38">
        <route edges="-E2 -E0 E3"/>
    </vehicle>
    <vehicle id="EW_car.98" type="car" depart="689.04">
        <route edges="-E1 E2"/>
    </vehicle>
    <vehicle id="NS_car.92" type="car" depart="691.38">
        <route edges="-E3 E0 E1"/>
    </vehicle>
    <vehicle id="SN_car.78" type="car" depart="693.26">
        <route edges="-E2 -E0 E3"/>
    </vehicle>
    <vehicle id="EW_car.99" type="car" depart="696.07">
        <route edges="-E1 E2"/>
    </vehicle>
    <vehicle id="NS_car.93" type="car" depart="698.90">
        <route edges="-E3 E0 E1"/>
    </vehicle>
    <vehicle id="SN_car.79" type="car" depart="702.15">
        <route edges="-E2 -E0 E3"/>
    </vehicle>
    <vehicle id="EW_car.100" type="car" depart="703.10">
        <route edges="-E1 E2"/>
    </vehicle>
    <vehicle id="NS_car.94" type="car" depart="706.41">
        <route edges="-E3 E0 E1"/>
    </vehicle>
    <vehicle id="EW_car.101" type="car" depart="710.13">
        <route edges="-E1 E2"/>
    </vehicle>
    <vehicle id="SN_car.80" type="car" depart="711.04">
        <route edges="-E2 E1"/>
    </vehicle>