<?xml version="1.0" encoding="UTF-8"?>
<routes xmlns:xsi="http://www.w3.org/2001/XMLSchema-instance" xsi:noNamespaceSchemaLocation="http://sumo.dlr.de/xsd/routes_file.xsd">
    <vType id="car" maxSpeed="37" vClass="passenger"/>

    <!-- 东进口：总 754 veh/h -->
    <flow id="E_car" type="car" from="-E1" begin="0" end="3600" number="754"/>
    <!-- 西进口：总 689 veh/h -->
    <flow id="W_car" type="car" from="E0" begin="0" end="3600" number="689"/>
    <!-- 南进口：总 627 veh/h -->
    <flow id="S_car" type="car" from="-E2" begin="0" end="3600" number="627"/>
    <!-- 北进口：总 563 veh/h -->
    <flow id="N_car" type="car" from="-E3" begin="0" end="3600" number="563"/>
</routes>