<?xml version="1.0" encoding="UTF-8"?>

<!-- generated on 2026-05-23T12:47:29.230645+08:00 by Eclipse SUMO jtrrouter 1.26.0
<jtrrouterConfiguration xmlns:xsi="http://www.w3.org/2001/XMLSchema-instance" xsi:noNamespaceSchemaLocation="http://sumo.dlr.de/xsd/jtrrouterConfiguration.xsd">

    <input>
        <net-file value="demo_7.net.xml"/>
        <route-files value="demo_7.flow.xml"/>
        <turn-ratio-files value="demo_7.turn.xml"/>
    </input>

    <output>
        <output-file value="demo_7.rou.xml"/>
    </output>

    <time>
        <begin value="0"/>
        <end value="3600"/>
    </time>

</jtrrouterConfiguration>
-->

<routes xmlns:xsi="http://www.w3.org/2001/XMLSchema-instance" xsi:noNamespaceSchemaLocation="http://sumo.dlr.de/xsd/routes_file.xsd">
    <vType id="car" maxSpeed="37.00" vClass="passenger"/>
    <vehicle id="EW_car.0" type="car" depart="0.00">
        <route edges="-E1 E2"/>
    </vehicle>
    <vehicle id="SN_car.0" type="car" depart="0.00">
        <route edges="-E2 E1"/>
    </vehicle>
    <vehicle id="WE_car.0" type="car" depart="0.00">
        <route edges="E0 E1"/>
    </vehicle>
    <vehicle id="EW_car.1" type="car" depart="10.17">
        <route edges="-E1 -E0"/>
    </vehicle>
    <vehicle id="WE_car.1" type="car" depart="10.98">
        <route edges="E0 E2"/>
    </vehicle>
    <vehicle id="SN_car.1" type="car" depart="11.50">
        <route edges="-E2 -E0"/>
    </vehicle>
    <vehicle id="EW_car.2" type="car" depart="20.34">
        <route edges="-E1 -E0"/>
    </vehicle>
    <vehicle id="WE_car.2" type="car" depart="21.95">
        <route edges="E0 E1"/>
    </vehicle>
    <vehicle id="SN_car.2" type="car" depart="23.00">
        <route edges="-E2 -E0"/>
    </vehicle>
    <vehicle id="EW_car.3" type="car" depart="30.51">
        <route edges="-E1 -E0"/>
    </vehicle>
    <vehicle id="WE_car.3" type="car" depart="32.93">
        <route edges="E0 E1"/>
    </vehicle>
    <vehicle id="SN_car.3" type="car" depart="34.50">
        <route edges="-E2 -E0"/>
    </vehicle>
    <vehicle id="EW_car.4" type="car" depart="40.68">
        <route edges="-E1 -E0"/>
    </vehicle>
    <vehicle id="WE_car.4" type="car" depart="43.90">
        <route edges="E0 E1"/>
    </vehicle>
    <vehicle id="SN_car.4" type="car" depart="46.00">
        <route edges="-E2 -E0"/>
    </vehicle>
    <vehicle id="EW_car.5" type="car" depart="50.85">
        <route edges="-E1 -E0"/>
    </vehicle>
    <vehicle id="WE_car.5" type="car" depart="54.88">
        <route edges="E0 E1"/>
    </vehicle>
    <vehicle id="SN_car.5" type="car" depart="57.51">
        <route edges="-E2 E1"/>
    </vehicle>
    <vehicle id="EW_car.6" type="car" depart="61.01">
        <route edges="-E1 -E0"/>
    </vehicle>
    <vehicle id="WE_car.6" type="car" depart="65.85">
        <route edges="E0 E2"/>
    </vehicle>
    <vehicle id="SN_car.6" type="car" depart="69.01">
        <route edges="-E2 -E0"/>
    </vehicle>
    <vehicle id="EW_car.7" type="car" depart="71.18">
        <route edges="-E1 -E0"/>
    </vehicle>
    <vehicle id="WE_car.7" type="car" depart="76.83">
        <route edges="E0 E1"/>
    </vehicle>
    <vehicle id="SN_car.7" type="car" depart="80.51">
        <route edges="-E2 -E0"/>
    </vehicle>
    <vehicle id="EW_car.8" type="car" depart="81.35">
        <route edges="-E1 E2"/>
    </vehicle>
    <vehicle id="WE_car.8" type="car" depart="87.80">
        <route edges="E0 E2"/>
    </vehicle>
    <vehicle id="EW_car.9" type="car" depart="91.52">
        <route edges="-E1 E2"/>
    </vehicle>
    <vehicle id="SN_car.8" type="car" depart="92.01">
        <route edges="-E2 -E0"/>
    </vehicle>
    <vehicle id="WE_car.9" type="car" depart="98.78">
        <route edges="E0 E2"/>
    </vehicle>
    <vehicle id="EW_car.10" type="car" depart="101.69">
        <route edges="-E1 -E0"/>
    </vehicle>
    <vehicle id="SN_car.9" type="car" depart="103.51">
        <route edges="-E2 -E0"/>
    </vehicle>
    <vehicle id="WE_car.10" type="car" depart="109.75">
        <route edges="E0 E1"/>
    </vehicle>
    <vehicle id="EW_car.11" type="car" depart="111.86">
        <route edges="-E1 -E0"/>
    </vehicle>
    <vehicle id="SN_car.10" type="car" depart="115.01">
        <route edges="-E2 -E0"/>
    </vehicle>
    <vehicle id="WE_car.11" type="car" depart="120.73">
        <route edges="E0 E2"/>
    </vehicle>
    <vehicle id="EW_car.12" type="car" depart="122.03">
        <route edges="-E1 -E0"/>
    </vehicle>
    <vehicle id="SN_car.11" type="car" depart="126.51">
        <route edges="-E2 -E0"/>
    </vehicle>
    <vehicle id="WE_car.12" type="car" depart="131.70">
        <route edges="E0 E1"/>
    </vehicle>
    <vehicle id="EW_car.13" type="car" depart="132.20">
        <route edges="-E1 -E0"/>
    </vehicle>
    <vehicle id="SN_car.12" type="car" depart="138.01">
        <route edges="-E2 -E0"/>
    </vehicle>
    <vehicle id="EW_car.14" type="car" depart="142.37">
        <route edges="-E1 -E0"/>
    </vehicle>
    <vehicle id="WE_car.13" type="car" depart="142.68">
        <route edges="E0 E2"/>
    </vehicle>
    <vehicle id="SN_car.13" type="car" depart="149.51">
        <route edges="-E2 -E0"/>
    </vehicle>
    <vehicle id="EW_car.15" type="car" depart="152.54">
        <route edges="-E1 -E0"/>
    </vehicle>
    <vehicle id="WE_car.14" type="car" depart="153.65">
        <route edges="E0 E1"/>
    </vehicle>
    <vehicle id="SN_car.14" type="car" depart="161.01">
        <route edges="-E2 -E0"/>
    </vehicle>
    <vehicle id="EW_car.16" type="car" depart="162.70">
        <route edges="-E1 -E0"/>
    </vehicle>
    <vehicle id="WE_car.15" type="car" depart="164.63">
        <route edges="E0 E2"/>
    </vehicle>
    <vehicle id="SN_car.15" type="car" depart="172.52">
        <route edges="-E2 -E0"/>
    </vehicle>
    <vehicle id="EW_car.17" type="car" depart="172.87">
        <route edges="-E1 -E0"/>
    </vehicle>
    <vehicle id="WE_car.16" type="car" depart="175.60">
        <route edges="E0 E2"/>
    </vehicle>
    <vehicle id="EW_car.18" type="car" depart="183.04">
        <route edges="-E1 -E0"/>
    </vehicle>
    <vehicle id="SN_car.16" type="car" depart="184.02">
        <route edges="-E2 -E0"/>
    </vehicle>
    <vehicle id="WE_car.17" type="car" depart="186.58">
        <route edges="E0 E2"/>
    </vehicle>
    <vehicle id="EW_car.19" type="car" depart="193.21">
        <route edges="-E1 E2"/>
    </vehicle>
    <vehicle id="SN_car.17" type="car" depart="195.52">
        <route edges="-E2 -E0"/>
    </vehicle>
    <vehicle id="WE_car.18" type="car" depart="197.55">
        <route edges="E0 E1"/>
    </vehicle>
    <vehicle id="EW_car.20" type="car" depart="203.38">
        <route edges="-E1 -E0"/>
    </vehicle>
    <vehicle id="SN_car.18" type="car" depart="207.02">
        <route edges="-E2 -E0"/>
    </vehicle>
    <vehicle id="WE_car.19" type="car" depart="208.53">
        <route edges="E0 E2"/>
    </vehicle>
    <vehicle id="EW_car.21" type="car" depart="213.55">
        <route edges="-E1 -E0"/>
    </vehicle>
    <vehicle id="SN_car.19" type="car" depart="218.52">
        <route edges="-E2 -E0"/>
    </vehicle>
    <vehicle id="WE_car.20" type="car" depart="219.50">
        <route edges="E0 E1"/>
    </vehicle>
    <vehicle id="EW_car.22" type="car" depart="223.72">
        <route edges="-E1 -E0"/>
    </vehicle>
    <vehicle id="SN_car.20" type="car" depart="230.02">
        <route edges="-E2 -E0"/>
    </vehicle>
    <vehicle id="WE_car.21" type="car" depart="230.48">
        <route edges="E0 E2"/>
    </vehicle>
    <vehicle id="EW_car.23" type="car" depart="233.89">
        <route edges="-E1 E2"/>
    </vehicle>
    <vehicle id="WE_car.22" type="car" depart="241.45">
        <route edges="E0 E1"/>
    </vehicle>
    <vehicle id="SN_car.21" type="car" depart="241.52">
        <route edges="-E2 -E0"/>
    </vehicle>
    <vehicle id="EW_car.24" type="car" depart="244.06">
        <route edges="-E1 E2"/>
    </vehicle>
    <vehicle id="WE_car.23" type="car" depart="252.43">
        <route edges="E0 E1"/>
    </vehicle>
    <vehicle id="SN_car.22" type="car" depart="253.02">
        <route edges="-E2 -E0"/>
    </vehicle>
    <vehicle id="EW_car.25" type="car" depart="254.23">
        <route edges="-E1 -E0"/>
    </vehicle>
    <vehicle id="WE_car.24" type="car" depart="263.40">
        <route edges="E0 E2"/>
    </vehicle>
    <vehicle id="EW_car.26" type="car" depart="264.39">
        <route edges="-E1 -E0"/>
    </vehicle>
    <vehicle id="SN_car.23" type="car" depart="264.52">
        <route edges="-E2 -E0"/>
    </vehicle>
    <vehicle id="WE_car.25" type="car" depart="274.38">
        <route edges="E0 E1"/>
    </vehicle>
    <vehicle id="EW_car.27" type="car" depart="274.56">
        <route edges="-E1 -E0"/>
    </vehicle>
    <vehicle id="SN_car.24" type="car" depart="276.02">
        <route edges="-E2 E1"/>
    </vehicle>
    <vehicle id="EW_car.28" type="car" depart="284.73">
        <route edges="-E1 -E0"/>
    </vehicle>
    <vehicle id="WE_car.26" type="car" depart="285.35">
        <route edges="E0 E1"/>
    </vehicle>
    <vehicle id="SN_car.25" type="car" depart="287.53">
        <route edges="-E2 -E0"/>
    </vehicle>
    <vehicle id="EW_car.29" type="car" depart="294.90">
        <route edges="-E1 -E0"/>
    </vehicle>
    <vehicle id="WE_car.27" type="car" depart="296.33">
        <route edges="E0 E1"/>
    </vehicle>
    <vehicle id="SN_car.26" type="car" depart="299.03">
        <route edges="-E2 -E0"/>
    </vehicle>
    <vehicle id="EW_car.30" type="car" depart="305.07">
        <route edges="-E1 -E0"/>
    </vehicle>
    <vehicle id="WE_car.28" type="car" depart="307.30">
        <route edges="E0 E2"/>
    </vehicle>
    <vehicle id="SN_car.27" type="car" depart="310.53">
        <route edges="-E2 E1"/>
    </vehicle>
    <vehicle id="EW_car.31" type="car" depart="315.24">
        <route edges="-E1 -E0"/>
    </vehicle>
    <vehicle id="WE_car.29" type="car" depart="318.28">
        <route edges="E0 E1"/>
    </vehicle>
    <vehicle id="SN_car.28" type="car" depart="322.03">
        <route edges="-E2 -E0"/>
    </vehicle>
    <vehicle id="EW_car.32" type="car" depart="325.41">
        <route edges="-E1 E2"/>
    </vehicle>
    <vehicle id="WE_car.30" type="car" depart="329.25">
        <route edges="E0 E1"/>
    </vehicle>
    <vehicle id="SN_car.29" type="car" depart="333.53">
        <route edges="-E2 -E0"/>
    </vehicle>
    <vehicle id="EW_car.33" type="car" depart="335.58">
        <route edges="-E1 -E0"/>
    </vehicle>
    <vehicle id="WE_car.31" type="car" depart="340.23">
        <route edges="E0 E2"/>
    </vehicle>
    <vehicle id="SN_car.30" type="car" depart="345.03">
        <route edges="-E2 -E0"/>
    </vehicle>
    <vehicle id="EW_car.34" type="car" depart="345.75">
        <route edges="-E1 E2"/>
    </vehicle>
    <vehicle id="WE_car.32" type="car" depart="351.20">
        <route edges="E0 E1"/>
    </vehicle>
    <vehicle id="EW_car.35" type="car" depart="355.92">
        <route edges="-E1 -E0"/>
    </vehicle>
    <vehicle id="SN_car.31" type="car" depart="356.53">
        <route edges="-E2 E1"/>
    </vehicle>
    <vehicle id="WE_car.33" type="car" depart="362.18">
        <route edges="E0 E1"/>
    </vehicle>
    <vehicle id="EW_car.36" type="car" depart="366.08">
        <route edges="-E1 E2"/>
    </vehicle>
    <vehicle id="SN_car.32" type="car" depart="368.03">
        <route edges="-E2 -E0"/>
    </vehicle>
    <vehicle id="WE_car.34" type="car" depart="373.15">
        <route edges="E0 E2"/>
    </vehicle>
    <vehicle id="EW_car.37" type="car" depart="376.25">
        <route edges="-E1 -E0"/>
    </vehicle>
    <vehicle id="SN_car.33" type="car" depart="379.53">
        <route edges="-E2 -E0"/>
    </vehicle>
    <vehicle id="WE_car.35" type="car" depart="384.13">
        <route edges="E0 E1"/>
    </vehicle>
    <vehicle id="EW_car.38" type="car" depart="386.42">
        <route edges="-E1 -E0"/>
    </vehicle>
    <vehicle id="SN_car.34" type="car" depart="391.03">
        <route edges="-E2 -E0"/>
    </vehicle>
    <vehicle id="WE_car.36" type="car" depart="395.10">
        <route edges="E0 E1"/>
    </vehicle>
    <vehicle id="EW_car.39" type="car" depart="396.59">
        <route edges="-E1 -E0"/>
    </vehicle>
    <vehicle id="SN_car.35" type="car" depart="402.54">
        <route edges="-E2 E1"/>
    </vehicle>
    <vehicle id="WE_car.37" type="car" depart="406.08">
        <route edges="E0 E1"/>
    </vehicle>
    <vehicle id="EW_car.40" type="car" depart="406.76">
        <route edges="-E1 -E0"/>
    </vehicle>
    <vehicle id="SN_car.36" type="car" depart="414.04">
        <route edges="-E2 -E0"/>
    </vehicle>
    <vehicle id="EW_car.41" type="car" depart="416.93">
        <route edges="-E1 -E0"/>
    </vehicle>
    <vehicle id="WE_car.38" type="car" depart="417.05">
        <route edges="E0 E1"/>
    </vehicle>
    <vehicle id="SN_car.37" type="car" depart="425.54">
        <route edges="-E2 E1"/>
    </vehicle>
    <vehicle id="EW_car.42" type="car" depart="427.10">
        <route edges="-E1 -E0"/>
    </vehicle>
    <vehicle id="WE_car.39" type="car" depart="428.03">
        <route edges="E0 E1"/>
    </vehicle>
    <vehicle id="SN_car.38" type="car" depart="437.04">
        <route edges="-E2 -E0"/>
    </vehicle>
    <vehicle id="EW_car.43" type="car" depart="437.27">
        <route edges="-E1 -E0"/>
    </vehicle>
    <vehicle id="WE_car.40" type="car" depart="439.00">
        <route edges="E0 E2"/>
    </vehicle>
    <vehicle id="EW_car.44" type="car" depart="447.44">
        <route edges="-E1 E2"/>
    </vehicle>
    <vehicle id="SN_car.39" type="car" depart="448.54">
        <route edges="-E2 E1"/>
    </vehicle>
    <vehicle id="WE_car.41" type="car" depart="449.98">
        <route edges="E0 E1"/>
    </vehicle>
    <vehicle id="EW_car.45" type="car" depart="457.61">
        <route edges="-E1 E2"/>
    </vehicle>
    <vehicle id="SN_car.40" type="car" depart="460.04">
        <route edges="-E2 -E0"/>
    </vehicle>
    <vehicle id="WE_car.42" type="car" depart="460.95">
        <route edges="E0 E2"/>
    </vehicle>
    <vehicle id="EW_car.46" type="car" depart="467.77">
        <route edges="-E1 -E0"/>
    </vehicle>
    <vehicle id="SN_car.41" type="car" depart="471.54">
        <route edges="-E2 -E0"/>
    </vehicle>
    <vehicle id="WE_car.43" type="car" depart="471.93">
        <route edges="E0 E1"/>
    </vehicle>
    <vehicle id="EW_car.47" type="car" depart="477.94">
        <route edges="-E1 -E0"/>
    </vehicle>
    <vehicle id="WE_car.44" type="car" depart="482.90">
        <route edges="E0 E2"/>
    </vehicle>
    <vehicle id="SN_car.42" type="car" depart="483.04">
        <route edges="-E2 -E0"/>
    </vehicle>
    <vehicle id="EW_car.48" type="car" depart="488.11">
        <route edges="-E1 -E0"/>
    </vehicle>
    <vehicle id="WE_car.45" type="car" depart="493.88">
        <route edges="E0 E1"/>
    </vehicle>
    <vehicle id="SN_car.43" type="car" depart="494.54">
        <route edges="-E2 E1"/>
    </vehicle>
    <vehicle id="EW_car.49" type="car" depart="498.28">
        <route edges="-E1 -E0"/>
    </vehicle>
    <vehicle id="WE_car.46" type="car" depart="504.85">
        <route edges="E0 E2"/>
    </vehicle>
    <vehicle id="SN_car.44" type="car" depart="506.04">
        <route edges="-E2 E1"/>
    </vehicle>
    <vehicle id="EW_car.50" type="car" depart="508.45">
        <route edges="-E1 -E0"/>
    </vehicle>
    <vehicle id="WE_car.47" type="car" depart="515.83">
        <route edges="E0 E1"/>
    </vehicle>
    <vehicle id="SN_car.45" type="car" depart="517.55">
        <route edges="-E2 E1"/>
    </vehicle>
    <vehicle id="EW_car.51" type="car" depart="518.62">
        <route edges="-E1 E2"/>
    </vehicle>
    <vehicle id="WE_car.48" type="car" depart="526.80">
        <route edges="E0 E1"/>
    </vehicle>
    <vehicle id="EW_car.52" type="car" depart="528.79">
        <route edges="-E1 E2"/>
    </vehicle>
    <vehicle id="SN_car.46" type="car" depart="529.05">
        <route edges="-E2 -E0"/>
    </vehicle>
    <vehicle id="WE_car.49" type="car" depart="537.78">
        <route edges="E0 E1"/>
    </vehicle>
    <vehicle id="EW_car.53" type="car" depart="538.96">
        <route edges="-E1 -E0"/>
    </vehicle>
    <vehicle id="SN_car.47" type="car" depart="540.55">
        <route edges="-E2 -E0"/>
    </vehicle>
    <vehicle id="WE_car.50" type="car" depart="548.75">
        <route edges="E0 E1"/>
    </vehicle>
    <vehicle id="EW_car.54" type="car" depart="549.13">
        <route edges="-E1 -E0"/>
    </vehicle>
    <vehicle id="SN_car.48" type="car" depart="552.05">
        <route edges="-E2 -E0"/>
    </vehicle>
    <vehicle id="EW_car.55" type="car" depart="559.30">
        <route edges="-E1 E2"/>
    </vehicle>
    <vehicle id="WE_car.51" type="car" depart="559.73">
        <route edges="E0 E1"/>
    </vehicle>
    <vehicle id="SN_car.49" type="car" depart="563.55">
        <route edges="-E2 -E0"/>
    </vehicle>
    <vehicle id="EW_car.56" type="car" depart="569.46">
        <route edges="-E1 E2"/>
    </vehicle>
    <vehicle id="WE_car.52" type="car" depart="570.70">
        <route edges="E0 E1"/>
    </vehicle>
    <vehicle id="SN_car.50" type="car" depart="575.05">
        <route edges="-E2 -E0"/>
    </vehicle>
    <vehicle id="EW_car.57" type="car" depart="579.63">
        <route edges="-E1 E2"/>
    </vehicle>
    <vehicle id="WE_car.53" type="car" depart="581.68">
        <route edges="E0 E2"/>
    </vehicle>
    <vehicle id="SN_car.51" type="car" depart="586.55">
        <route edges="-E2 -E0"/>
    </vehicle>
    <vehicle id="EW_car.58" type="car" depart="589.80">
        <route edges="-E1 E2"/>
    </vehicle>
    <vehicle id="WE_car.54" type="car" depart="592.65">
        <route edges="E0 E1"/>
    </vehicle>
    <vehicle id="SN_car.52" type="car" depart="598.05">
        <route edges="-E2 E1"/>
    </vehicle>
    <vehicle id="EW_car.59" type="car" depart="599.97">
        <route edges="-E1 -E0"/>
    </vehicle>
    <vehicle id="WE_car.55" type="car" depart="603.63">
        <route edges="E0 E1"/>
    </vehicle>
    <vehicle id="SN_car.53" type="car" depart="609.55">
        <route edges="-E2 E1"/>
    </vehicle>
    <vehicle id="EW_car.60" type="car" depart="610.14">
        <route edges="-E1 -E0"/>
    </vehicle>
    <vehicle id="WE_car.56" type="car" depart="614.60">
        <route edges="E0 E1"/>
    </vehicle>
    <vehicle id="EW_car.61" type="car" depart="620.31">
        <route edges="-E1 -E0"/>
    </vehicle>
    <vehicle id="SN_car.54" type="car" depart="621.05">
        <route edges="-E2 -E0"/>
    </vehicle>
    <vehicle id="WE_car.57" type="car" depart="625.58">
        <route edges="E0 E1"/>
    </vehicle>
    <vehicle id="EW_car.62" type="car" depart="630.48">
        <route edges="-E1 -E0"/>
    </vehicle>
    <vehicle id="SN_car.55" type="car" depart="632.56">
        <route edges="-E2 -E0"/>
    </vehicle>
    <vehicle id="WE_car.58" type="car" depart="636.55">
        <route edges="E0 E1"/>
    </vehicle>
    <vehicle id="EW_car.63" type="car" depart="640.65">
        <route edges="-E1 E2"/>
    </vehicle>
    <vehicle id="SN_car.56" type="car" depart="644.06">
        <route edges="-E2 -E0"/>
    </vehicle>
    <vehicle id="WE_car.59" type="car" depart="647.53">
        <route edges="E0 E2"/>
    </vehicle>
    <vehicle id="EW_car.64" type="car" depart="650.82">
        <route edges="-E1 -E0"/>
    </vehicle>
    <vehicle id="SN_car.57" type="car" depart="655.56">
        <route edges="-E2 E1"/>
    </vehicle>
    <vehicle id="WE_car.60" type="car" depart="658.50">
        <route edges="E0 E1"/>
    </vehicle>
    <vehicle id="EW_car.65" type="car" depart="660.99">
        <route edges="-E1 -E0"/>
    </vehicle>
    <vehicle id="SN_car.58" type="car" depart="667.06">
        <route edges="-E2 -E0"/>
    </vehicle>
    <vehicle id="WE_car.61" type="car" depart="669.48">
        <route edges="E0 E1"/>
    </vehicle>
    <vehicle id="EW_car.66" type="car" depart="671.15">
        <route edges="-E1 -E0"/>
    </vehicle>
    <vehicle id="SN_car.59" type="car" depart="678.56">
        <route edges="-E2 E1"/>
    </vehicle>
    <vehicle id="WE_car.62" type="car" depart="680.45">
        <route edges="E0 E1"/>
    </vehicle>
    <vehicle id="EW_car.67" type="car" depart="681.32">
        <route edges="-E1 -E0"/>
    </vehicle>
    <vehicle id="SN_car.60" type="car" depart="690.06">
        <route edges="-E2 E1"/>
    </vehicle>
    <vehicle id="WE_car.63" type="car" depart="691.43">
        <route edges="E0 E1"/>
    </vehicle>
    <vehicle id="EW_car.68" type="car" depart="691.49">
        <route edges="-E1 -E0"/>
    </vehicle>
    <vehicle id="SN_car.61" type="car" depart="701.56">
        <route edges="-E2 -E0"/>
    </vehicle>
    <vehicle id="EW_car.69" type="car" depart="701.66">
        <route edges="-E1 E2"/>
    </vehicle>
    <vehicle id="WE_car.64" type="car" depart="702.40">
        <route edges="E0 E1"/>
    </vehicle>
    <vehicle id="EW_car.70" type="car" depart="711.83">
        <route edges="-E1 E2"/>
    </vehicle>
    <vehicle id="SN_car.62" type="car" depart="713.06">
        <route edges="-E2 -E0"/>
    </vehicle>
    <vehicle id="WE_car.65" type="car" depart="713.38">
        <route edges="E0 E2"/>
    </vehicle>
    <vehicle id="EW_car.71" type="car" depart="722.00">
        <route edges="-E1 -E0"/>
    </vehicle>
    <vehicle id="WE_car.66" type="car" depart="724.35">
        <route edges="E0 E1"/>
    </vehicle>
    <vehicle id="SN_car.63" type="car" depart="724.56">
        <route edges="-E2 -E0"/>
    </vehicle>
    <vehicle id="EW_car.72" type="car" depart="732.17">
        <route edges="-E1 -E0"/>
    </vehicle>
    <vehicle id="WE_car.67" type="car" depart="735.33">
        <route edges="E0 E2"/>
    </vehicle>
    <vehicle id="SN_car.64" type="car" depart="736.06">
        <route edges="-E2 E1"/>
    </vehicle>
    <vehicle id="EW_car.73" type="car" depart="742.34">
        <route edges="-E1 -E0"/>
    </vehicle>
    <vehicle id="WE_car.68" type="car" depart="746.30">
        <route edges="E0 E1"/>
    </vehicle>
    <vehicle id="SN_car.65" type="car" depart="747.57">
        <route edges="-E2 -E0"/>
    </vehicle>
    <vehicle id="EW_car.74" type="car" depart="752.51">
        <route edges="-E1 -E0"/>
    </vehicle>
    <vehicle id="WE_car.69" type="car" depart="757.28">
        <route edges="E0 E2"/>
    </vehicle>
    <vehicle id="SN_car.66" type="car" depart="759.07">
        <route edges="-E2 -E0"/>
    </vehicle>
    <vehicle id="EW_car.75" type="car" depart="762.68">
        <route edges="-E1 -E0"/>
    </vehicle>
    <vehicle id="WE_car.70" type="car" depart="768.25">
        <route edges="E0 E2"/>
    </vehicle>
    <vehicle id="SN_car.67" type="car" depart="770.57">
        <route edges="-E2 E1"/>
    </vehicle>
    <vehicle id="EW_car.76" type="car" depart="772.84">
        <route edges="-E1 -E0"/>
    </vehicle>
    <vehicle id="WE_car.71" type="car" depart="779.23">
        <route edges="E0 E1"/>
    </vehicle>
    <vehicle id="SN_car.68" type="car" depart="782.07">
        <route edges="-E2 E1"/>
    </vehicle>
    <vehicle id="EW_car.77" type="car" depart="783.01">
        <route edges="-E1 -E0"/>
    </vehicle>
    <vehicle id="WE_car.72" type="car" depart="790.20">
        <route edges="E0 E1"/>
    </vehicle>
    <vehicle id="EW_car.78" type="car" depart="793.18">
        <route edges="-E1 -E0"/>
    </vehicle>
    <vehicle id="SN_car.69" type="car" depart="793.57">
        <route edges="-E2 -E0"/>
    </vehicle>
    <vehicle id="WE_car.73" type="car" depart="801.18">
        <route edges="E0 E2"/>
    </vehicle>
    <vehicle id="EW_car.79" type="car" depart="803.35">
        <route edges="-E1 -E0"/>
    </vehicle>
    <vehicle id="SN_car.70" type="car" depart="805.07">
        <route edges="-E2 -E0"/>
    </vehicle>
    <vehicle id="WE_car.74" type="car" depart="812.15">
        <route edges="E0 E2"/>
    </vehicle>
    <vehicle id="EW_car.80" type="car" depart="813.52">
        <route edges="-E1 E2"/>
    </vehicle>
    <vehicle id="SN_car.71" type="car" depart="816.57">
        <route edges="-E2 -E0"/>
    </vehicle>
    <vehicle id="WE_car.75" type="car" depart="823.13">
        <route edges="E0 E2"/>
    </vehicle>
    <vehicle id="EW_car.81" type="car" depart="823.69">
        <route edges="-E1 -E0"/>
    </vehicle>
    <vehicle id="SN_car.72" type="car" depart="828.07">
        <route edges="-E2 -E0"/>
    </vehicle>
    <vehicle id="EW_car.82" type="car" depart="833.86">
        <route edges="-E1 -E0"/>
    </vehicle>
    <vehicle id="WE_car.76" type="car" depart="834.10">
        <route edges="E0 E1"/>
    </vehicle>
    <vehicle id="SN_car.73" type="car" depart="839.57">
        <route edges="-E2 -E0"/>
    </vehicle>
    <vehicle id="EW_car.83" type="car" depart="844.03">
        <route edges="-E1 -E0"/>
    </vehicle>
    <vehicle id="WE_car.77" type="car" depart="845.08">
        <route edges="E0 E2"/>
    </vehicle>
    <vehicle id="SN_car.74" type="car" depart="851.07">
        <route edges="-E2 E1"/>
    </vehicle>
    <vehicle id="EW_car.84" type="car" depart="854.20">
        <route edges="-E1 -E0"/>
    </vehicle>
    <vehicle id="WE_car.78" type="car" depart="856.05">
        <route edges="E0 E2"/>
    </vehicle>
    <vehicle id="SN_car.75" type="car" depart="862.58">
        <route edges="-E2 -E0"/>
    </vehicle>
    <vehicle id="EW_car.85" type="car" depart="864.37">
        <route edges="-E1 -E0"/>
    </vehicle>
    <vehicle id="WE_car.79" type="car" depart="867.03">
        <route edges="E0 E1"/>
    </vehicle>
    <vehicle id="SN_car.76" type="car" depart="874.08">
        <route edges="-E2 -E0"/>
    </vehicle>
    <vehicle id="EW_car.86" type="car" depart="874.53">
        <route edges="-E1 -E0"/>
    </vehicle>
    <vehicle id="WE_car.80" type="car" depart="878.00">
        <route edges="E0 E1"/>
    </vehicle>
    <vehicle id="EW_car.87" type="car" depart="884.70">
        <route edges="-E1 -E0"/>
    </vehicle>
    <vehicle id="SN_car.77" type="car" depart="885.58">
        <route edges="-E2 E1"/>
    </vehicle>
    <vehicle id="WE_car.81" type="car" depart="888.98">
        <route edges="E0 E1"/>
    </vehicle>
    <vehicle id="EW_car.88" type="car" depart="894.87">
        <route edges="-E1 -E0"/>
    </vehicle>
    <vehicle id="SN_car.78" type="car" depart="897.08">
        <route edges="-E2 -E0"/>
    </vehicle>
    <vehicle id="WE_car.82" type="car" depart="899.95">
        <route edges="E0 E1"/>
    </vehicle>
    <vehicle id="EW_car.89" type="car" depart="905.04">
        <route edges="-E1 -E0"/>
    </vehicle>
    <vehicle id="SN_car.79" type="car" depart="908.58">
        <route edges="-E2 -E0"/>
    </vehicle>
    <vehicle id="WE_car.83" type="car" depart="910.93">
        <route edges="E0 E2"/>
    </vehicle>
    <vehicle id="EW_car.90" type="car" depart="915.21">
        <route edges="-E1 -E0"/>
    </vehicle>
    <vehicle id="SN_car.80" type="car" depart="920.08">
        <route edges="-E2 -E0"/>
    </vehicle>
    <vehicle id="WE_car.84" type="car" depart="921.90">
        <route edges="E0 E2"/>
    </vehicle>
    <vehicle id="EW_car.91" type="car" depart="925.38">
        <route edges="-E1 -E0"/>
    </vehicle>
    <vehicle id="SN_car.81" type="car" depart="931.58">
        <route edges="-E2 -E0"/>
    </vehicle>
    <vehicle id="WE_car.85" type="car" depart="932.88">
        <route edges="E0 E1"/>
    </vehicle>
    <vehicle id="EW_car.92" type="car" depart="935.55">
        <route edges="-E1 -E0"/>
    </vehicle>
    <vehicle id="SN_car.82" type="car" depart="943.08">
        <route edges="-E2 E1"/>
    </vehicle>
    <vehicle id="WE_car.86" type="car" depart="943.85">
        <route edges="E0 E1"/>
    </vehicle>
    <vehicle id="EW_car.93" type="car" depart="945.72">
        <route edges="-E1 -E0"/>
    </vehicle>
    <vehicle id="SN_car.83" type="car" depart="954.58">
        <route edges="-E2 -E0"/>
    </vehicle>
    <vehicle id="WE_car.87" type="car" depart="954.83">
        <route edges="E0 E1"/>
    </vehicle>
    <vehicle id="EW_car.94" type="car" depart="955.89">
        <route edges="-E1 -E0"/>
    </vehicle>
    <vehicle id="WE_car.88" type="car" depart="965.80">
        <route edges="E0 E1"/>
    </vehicle>
    <vehicle id="EW_car.95" type="car" depart="966.06">
        <route edges="-E1 E2"/>
    </vehicle>
    <vehicle id="SN_car.84" type="car" depart="966.08">
        <route edges="-E2 E1"/>
    </vehicle>
    <vehicle id="EW_car.96" type="car" depart="976.22">
        <route edges="-E1 -E0"/>
    </vehicle>
    <vehicle id="WE_car.89" type="car" depart="976.78">
        <route edges="E0 E1"/>
    </vehicle>
    <vehicle id="SN_car.85" type="car" depart="977.59">
        <route edges="-E2 E1"/>
    </vehicle>
    <vehicle id="EW_car.97" type="car" depart="986.39">
        <route edges="-E1 -E0"/>
    </vehicle>
    <vehicle id="WE_car.90" type="car" depart="987.75">
        <route edges="E0 E1"/>
    </vehicle>
    <vehicle id="SN_car.86" type="car" depart="989.09">
        <route edges="-E2 -E0"/>
    </vehicle>
    <vehicle id="EW_car.98" type="car" depart="996.56">
        <route edges="-E1 E2"/>
    </vehicle>
    <vehicle id="WE_car.91" type="car" depart="998.73">
        <route edges="E0 E2"/>
    </vehicle>
    <vehicle id="SN_car.87" type="car" depart="1000.59">
        <route edges="-E2 E1"/>
    </vehicle>
    <vehicle id="EW_car.99" type="car" depart="1006.73">
        <route edges="-E1 -E0"/>
    </vehicle>
    <vehicle id="WE_car.92" type="car" depart="1009.70">
        <route edges="E0 E1"/>
    </vehicle>
    <vehicle id="SN_car.88" type="car" depart="1012.09">
        <route edges="-E2 -E0"/>
    </vehicle>
    <vehicle id="EW_car.100" type="car" depart="1016.90">
        <route edges="-E1 -E0"/>
    </vehicle>