<?xml version="1.0" encoding="UTF-8"?>

<!-- generated on 2026-05-22T21:36:34.138231+08:00 by Eclipse SUMO jtrrouter 1.26.0
<jtrrouterConfiguration xmlns:xsi="http://www.w3.org/2001/XMLSchema-instance" xsi:noNamespaceSchemaLocation="http://sumo.dlr.de/xsd/jtrrouterConfiguration.xsd">

    <input>
        <net-file value="demo_2.net.xml"/>
        <route-files value="demo_2.flow.xml"/>
        <turn-ratio-files value="demo_2.turn.xml"/>
    </input>

    <output>
        <output-file value="demo_2.rou.xml"/>
    </output>

    <time>
        <begin value="0"/>
        <end value="3600"/>
    </time>

</jtrrouterConfiguration>
-->

<routes xmlns:xsi="http://www.w3.org/2001/XMLSchema-instance" xsi:noNamespaceSchemaLocation="http://sumo.dlr.de/xsd/routes_file.xsd">
    <vType id="car" maxSpeed="37.00" vClass="passenger"/>
    <vehicle id="NS_car.0" type="car" depart="0.00">
        <route edges="-E1 E2"/>
    </vehicle>
    <vehicle id="SN_car.0" type="car" depart="0.00">
        <route edges="-E2 E1"/>
    </vehicle>
    <vehicle id="WE_car.0" type="car" depart="0.00">
        <route edges="E0 E1"/>
    </vehicle>
    <vehicle id="NS_car.1" type="car" depart="9.78">
        <route edges="-E1 -E0"/>
    </vehicle>
    <vehicle id="SN_car.1" type="car" depart="11.18">
        <route edges="-E2 -E0"/>
    </vehicle>
    <vehicle id="WE_car.1" type="car" depart="11.39">
        <route edges="E0 E1"/>
    </vehicle>
    <vehicle id="NS_car.2" type="car" depart="19.56">
        <route edges="-E1 E2"/>
    </vehicle>
    <vehicle id="SN_car.2" type="car" depart="22.36">
        <route edges="-E2 -E0"/>
    </vehicle>
    <vehicle id="WE_car.2" type="car" depart="22.78">
        <route edges="E0 E2"/>
    </vehicle>
    <vehicle id="NS_car.3" type="car" depart="29.35">
        <route edges="-E1 E2"/>
    </vehicle>
    <vehicle id="SN_car.3" type="car" depart="33.54">
        <route edges="-E2 -E0"/>
    </vehicle>
    <vehicle id="WE_car.3" type="car" depart="34.18">
        <route edges="E0 E2"/>
    </vehicle>
    <vehicle id="NS_car.4" type="car" depart="39.13">
        <route edges="-E1 -E0"/>
    </vehicle>
    <vehicle id="SN_car.4" type="car" depart="44.72">
        <route edges="-E2 -E0"/>
    </vehicle>
    <vehicle id="WE_car.4" type="car" depart="45.57">
        <route edges="E0 E2"/>
    </vehicle>
    <vehicle id="NS_car.5" type="car" depart="48.91">
        <route edges="-E1 -E0"/>
    </vehicle>
    <vehicle id="SN_car.5" type="car" depart="55.90">
        <route edges="-E2 -E0"/>
    </vehicle>
    <vehicle id="WE_car.5" type="car" depart="56.96">
        <route edges="E0 E2"/>
    </vehicle>
    <vehicle id="NS_car.6" type="car" depart="58.69">
        <route edges="-E1 -E0"/>
    </vehicle>
    <vehicle id="SN_car.6" type="car" depart="67.08">
        <route edges="-E2 -E0"/>
    </vehicle>
    <vehicle id="WE_car.6" type="car" depart="68.35">
        <route edges="E0 E1"/>
    </vehicle>
    <vehicle id="NS_car.7" type="car" depart="68.47">
        <route edges="-E1 -E0"/>
    </vehicle>
    <vehicle id="NS_car.8" type="car" depart="78.26">
        <route edges="-E1 -E0"/>
    </vehicle>
    <vehicle id="SN_car.7" type="car" depart="78.26">
        <route edges="-E2 -E0"/>
    </vehicle>
    <vehicle id="WE_car.7" type="car" depart="79.74">
        <route edges="E0 E2"/>
    </vehicle>
    <vehicle id="NS_car.9" type="car" depart="88.04">
        <route edges="-E1 E2"/>
    </vehicle>
    <vehicle id="SN_car.8" type="car" depart="89.44">
        <route edges="-E2 E1"/>
    </vehicle>
    <vehicle id="WE_car.8" type="car" depart="91.14">
        <route edges="E0 E1"/>
    </vehicle>
    <vehicle id="NS_car.10" type="car" depart="97.82">
        <route edges="-E1 -E0"/>
    </vehicle>
    <vehicle id="SN_car.9" type="car" depart="100.62">
        <route edges="-E2 -E0"/>
    </vehicle>
    <vehicle id="WE_car.9" type="car" depart="102.53">
        <route edges="E0 E1"/>
    </vehicle>
    <vehicle id="NS_car.11" type="car" depart="107.60">
        <route edges="-E1 -E0"/>
    </vehicle>
    <vehicle id="SN_car.10" type="car" depart="111.80">
        <route edges="-E2 E1"/>
    </vehicle>
    <vehicle id="WE_car.10" type="car" depart="113.92">
        <route edges="E0 E1"/>
    </vehicle>
    <vehicle id="NS_car.12" type="car" depart="117.38">
        <route edges="-E1 E2"/>
    </vehicle>
    <vehicle id="SN_car.11" type="car" depart="122.98">
        <route edges="-E2 -E0"/>
    </vehicle>
    <vehicle id="WE_car.11" type="car" depart="125.31">
        <route edges="E0 E2"/>
    </vehicle>
    <vehicle id="NS_car.13" type="car" depart="127.17">
        <route edges="-E1 -E0"/>
    </vehicle>
    <vehicle id="SN_car.12" type="car" depart="134.16">
        <route edges="-E2 -E0"/>
    </vehicle>
    <vehicle id="WE_car.12" type="car" depart="136.70">
        <route edges="E0 E1"/>
    </vehicle>
    <vehicle id="NS_car.14" type="car" depart="136.95">
        <route edges="-E1 -E0"/>
    </vehicle>
    <vehicle id="SN_car.13" type="car" depart="145.34">
        <route edges="-E2 E1"/>
    </vehicle>
    <vehicle id="NS_car.15" type="car" depart="146.73">
        <route edges="-E1 -E0"/>
    </vehicle>
    <vehicle id="WE_car.13" type="car" depart="148.10">
        <route edges="E0 E1"/>
    </vehicle>
    <vehicle id="NS_car.16" type="car" depart="156.51">
        <route edges="-E1 -E0"/>
    </vehicle>
    <vehicle id="SN_car.14" type="car" depart="156.52">
        <route edges="-E2 -E0"/>
    </vehicle>
    <vehicle id="WE_car.14" type="car" depart="159.49">
        <route edges="E0 E1"/>
    </vehicle>
    <vehicle id="NS_car.17" type="car" depart="166.29">
        <route edges="-E1 E2"/>
    </vehicle>
    <vehicle id="SN_car.15" type="car" depart="167.70">
        <route edges="-E2 -E0"/>
    </vehicle>
    <vehicle id="WE_car.15" type="car" depart="170.88">
        <route edges="E0 E2"/>
    </vehicle>
    <vehicle id="NS_car.18" type="car" depart="176.08">
        <route edges="-E1 E2"/>
    </vehicle>
    <vehicle id="SN_car.16" type="car" depart="178.88">
        <route edges="-E2 -E0"/>
    </vehicle>
    <vehicle id="WE_car.16" type="car" depart="182.27">
        <route edges="E0 E2"/>
    </vehicle>
    <vehicle id="NS_car.19" type="car" depart="185.86">
        <route edges="-E1 E2"/>
    </vehicle>
    <vehicle id="SN_car.17" type="car" depart="190.06">
        <route edges="-E2 E1"/>
    </vehicle>
    <vehicle id="WE_car.17" type="car" depart="193.66">
        <route edges="E0 E1"/>
    </vehicle>
    <vehicle id="NS_car.20" type="car" depart="195.64">
        <route edges="-E1 -E0"/>
    </vehicle>
    <vehicle id="SN_car.18" type="car" depart="201.24">
        <route edges="-E2 -E0"/>
    </vehicle>
    <vehicle id="WE_car.18" type="car" depart="205.06">
        <route edges="E0 E1"/>
    </vehicle>
    <vehicle id="NS_car.21" type="car" depart="205.42">
        <route edges="-E1 E2"/>
    </vehicle>
    <vehicle id="SN_car.19" type="car" depart="212.42">
        <route edges="-E2 -E0"/>
    </vehicle>
    <vehicle id="NS_car.22" type="car" depart="215.20">
        <route edges="-E1 E2"/>
    </vehicle>
    <vehicle id="WE_car.19" type="car" depart="216.45">
        <route edges="E0 E1"/>
    </vehicle>
    <vehicle id="SN_car.20" type="car" depart="223.60">
        <route edges="-E2 -E0"/>
    </vehicle>
    <vehicle id="NS_car.23" type="car" depart="224.99">
        <route edges="-E1 -E0"/>
    </vehicle>
    <vehicle id="WE_car.20" type="car" depart="227.84">
        <route edges="E0 E2"/>
    </vehicle>
    <vehicle id="NS_car.24" type="car" depart="234.77">
        <route edges="-E1 E2"/>
    </vehicle>
    <vehicle id="SN_car.21" type="car" depart="234.78">
        <route edges="-E2 -E0"/>
    </vehicle>
    <vehicle id="WE_car.21" type="car" depart="239.23">
        <route edges="E0 E1"/>
    </vehicle>
    <vehicle id="NS_car.25" type="car" depart="244.55">
        <route edges="-E1 E2"/>
    </vehicle>
    <vehicle id="SN_car.22" type="car" depart="245.96">
        <route edges="-E2 -E0"/>
    </vehicle>
    <vehicle id="WE_car.22" type="car" depart="250.62">
        <route edges="E0 E1"/>
    </vehicle>
    <vehicle id="NS_car.26" type="car" depart="254.33">
        <route edges="-E1 -E0"/>
    </vehicle>
    <vehicle id="SN_car.23" type="car" depart="257.14">
        <route edges="-E2 -E0"/>
    </vehicle>
    <vehicle id="WE_car.23" type="car" depart="262.02">
        <route edges="E0 E1"/>
    </vehicle>
    <vehicle id="NS_car.27" type="car" depart="264.11">
        <route edges="-E1 -E0"/>
    </vehicle>
    <vehicle id="SN_car.24" type="car" depart="268.32">
        <route edges="-E2 -E0"/>
    </vehicle>
    <vehicle id="WE_car.24" type="car" depart="273.41">
        <route edges="E0 E1"/>
    </vehicle>
    <vehicle id="NS_car.28" type="car" depart="273.90">
        <route edges="-E1 E2"/>
    </vehicle>
    <vehicle id="SN_car.25" type="car" depart="279.50">
        <route edges="-E2 -E0"/>
    </vehicle>
    <vehicle id="NS_car.29" type="car" depart="283.68">
        <route edges="-E1 -E0"/>
    </vehicle>
    <vehicle id="WE_car.25" type="car" depart="284.80">
        <route edges="E0 E1"/>
    </vehicle>
    <vehicle id="SN_car.26" type="car" depart="290.68">
        <route edges="-E2 -E0"/>
    </vehicle>
    <vehicle id="NS_car.30" type="car" depart="293.46">
        <route edges="-E1 -E0"/>
    </vehicle>
    <vehicle id="WE_car.26" type="car" depart="296.19">
        <route edges="E0 E2"/>
    </vehicle>
    <vehicle id="SN_car.27" type="car" depart="301.86">
        <route edges="-E2 -E0"/>
    </vehicle>
    <vehicle id="NS_car.31" type="car" depart="303.24">
        <route edges="-E1 -E0"/>
    </vehicle>
    <vehicle id="WE_car.27" type="car" depart="307.58">
        <route edges="E0 E2"/>
    </vehicle>
    <vehicle id="NS_car.32" type="car" depart="313.02">
        <route edges="-E1 -E0"/>
    </vehicle>
    <vehicle id="SN_car.28" type="car" depart="313.04">
        <route edges="-E2 -E0"/>
    </vehicle>
    <vehicle id="WE_car.28" type="car" depart="318.98">
        <route edges="E0 E1"/>
    </vehicle>
    <vehicle id="NS_car.33" type="car" depart="322.81">
        <route edges="-E1 E2"/>
    </vehicle>
    <vehicle id="SN_car.29" type="car" depart="324.22">
        <route edges="-E2 -E0"/>
    </vehicle>
    <vehicle id="WE_car.29" type="car" depart="330.37">
        <route edges="E0 E1"/>
    </vehicle>
    <vehicle id="NS_car.34" type="car" depart="332.59">
        <route edges="-E1 -E0"/>
    </vehicle>
    <vehicle id="SN_car.30" type="car" depart="335.40">
        <route edges="-E2 E1"/>
    </vehicle>
    <vehicle id="WE_car.30" type="car" depart="341.76">
        <route edges="E0 E2"/>
    </vehicle>
    <vehicle id="NS_car.35" type="car" depart="342.37">
        <route edges="-E1 E2"/>
    </vehicle>
    <vehicle id="SN_car.31" type="car" depart="346.58">
        <route edges="-E2 -E0"/>
    </vehicle>
    <vehicle id="NS_car.36" type="car" depart="352.15">
        <route edges="-E1 -E0"/>
    </vehicle>
    <vehicle id="WE_car.31" type="car" depart="353.15">
        <route edges="E0 E2"/>
    </vehicle>
    <vehicle id="SN_car.32" type="car" depart="357.76">
        <route edges="-E2 -E0"/>
    </vehicle>
    <vehicle id="NS_car.37" type="car" depart="361.93">
        <route edges="-E1 E2"/>
    </vehicle>
    <vehicle id="WE_car.32" type="car" depart="364.54">
        <route edges="E0 E2"/>
    </vehicle>
    <vehicle id="SN_car.33" type="car" depart="368.94">
        <route edges="-E2 E1"/>
    </vehicle>
    <vehicle id="NS_car.38" type="car" depart="371.72">
        <route edges="-E1 -E0"/>
    </vehicle>
    <vehicle id="WE_car.33" type="car" depart="375.94">
        <route edges="E0 E1"/>
    </vehicle>
    <vehicle id="SN_car.34" type="car" depart="380.12">
        <route edges="-E2 -E0"/>
    </vehicle>
    <vehicle id="NS_car.39" type="car" depart="381.50">
        <route edges="-E1 E2"/>
    </vehicle>
    <vehicle id="WE_car.34" type="car" depart="387.33">
        <route edges="E0 E1"/>
    </vehicle>
    <vehicle id="NS_car.40" type="car" depart="391.28">
        <route edges="-E1 -E0"/>
    </vehicle>
    <vehicle id="SN_car.35" type="car" depart="391.30">
        <route edges="-E2 -E0"/>
    </vehicle>
    <vehicle id="WE_car.35" type="car" depart="398.72">
        <route edges="E0 E2"/>
    </vehicle>
    <vehicle id="NS_car.41" type="car" depart="401.06">
        <route edges="-E1 -E0"/>
    </vehicle>
    <vehicle id="SN_car.36" type="car" depart="402.48">
        <route edges="-E2 E1"/>
    </vehicle>
    <vehicle id="WE_car.36" type="car" depart="410.11">
        <route edges="E0 E1"/>
    </vehicle>
    <vehicle id="NS_car.42" type="car" depart="410.84">
        <route edges="-E1 E2"/>
    </vehicle>
    <vehicle id="SN_car.37" type="car" depart="413.66">
        <route edges="-E2 -E0"/>
    </vehicle>
    <vehicle id="NS_car.43" type="car" depart="420.63">
        <route edges="-E1 E2"/>
    </vehicle>
    <vehicle id="WE_car.37" type="car" depart="421.50">
        <route edges="E0 E1"/>
    </vehicle>
    <vehicle id="SN_car.38" type="car" depart="424.84">
        <route edges="-E2 -E0"/>
    </vehicle>
    <vehicle id="NS_car.44" type="car" depart="430.41">
        <route edges="-E1 -E0"/>
    </vehicle>
    <vehicle id="WE_car.38" type="car" depart="432.90">
        <route edges="E0 E1"/>
    </vehicle>
    <vehicle id="SN_car.39" type="car" depart="436.02">
        <route edges="-E2 -E0"/>
    </vehicle>
    <vehicle id="NS_car.45" type="car" depart="440.19">
        <route edges="-E1 E2"/>
    </vehicle>
    <vehicle id="WE_car.39" type="car" depart="444.29">
        <route edges="E0 E2"/>
    </vehicle>
    <vehicle id="SN_car.40" type="car" depart="447.20">
        <route edges="-E2 -E0"/>
    </vehicle>
    <vehicle id="NS_car.46" type="car" depart="449.97">
        <route edges="-E1 E2"/>
    </vehicle>
    <vehicle id="WE_car.40" type="car" depart="455.68">
        <route edges="E0 E1"/>
    </vehicle>
    <vehicle id="SN_car.41" type="car" depart="458.38">
        <route edges="-E2 -E0"/>
    </vehicle>
    <vehicle id="NS_car.47" type="car" depart="459.75">
        <route edges="-E1 -E0"/>
    </vehicle>
    <vehicle id="WE_car.41" type="car" depart="467.07">
        <route edges="E0 E2"/>
    </vehicle>
    <vehicle id="NS_car.48" type="car" depart="469.54">
        <route edges="-E1 -E0"/>
    </vehicle>
    <vehicle id="SN_car.42" type="car" depart="469.56">
        <route edges="-E2 -E0"/>
    </vehicle>
    <vehicle id="WE_car.42" type="car" depart="478.46">
        <route edges="E0 E2"/>
    </vehicle>
    <vehicle id="NS_car.49" type="car" depart="479.32">
        <route edges="-E1 -E0"/>
    </vehicle>
    <vehicle id="SN_car.43" type="car" depart="480.74">
        <route edges="-E2 -E0"/>
    </vehicle>
    <vehicle id="NS_car.50" type="car" depart="489.10">
        <route edges="-E1 -E0"/>
    </vehicle>
    <vehicle id="WE_car.43" type="car" depart="489.86">
        <route edges="E0 E2"/>
    </vehicle>
    <vehicle id="SN_car.44" type="car" depart="491.92">
        <route edges="-E2 -E0"/>
    </vehicle>
    <vehicle id="NS_car.51" type="car" depart="498.88">
        <route edges="-E1 E2"/>
    </vehicle>
    <vehicle id="WE_car.44" type="car" depart="501.25">
        <route edges="E0 E2"/>
    </vehicle>
    <vehicle id="SN_car.45" type="car" depart="503.10">
        <route edges="-E2 -E0"/>
    </vehicle>
    <vehicle id="NS_car.52" type="car" depart="508.66">
        <route edges="-E1 -E0"/>
    </vehicle>
    <vehicle id="WE_car.45" type="car" depart="512.64">
        <route edges="E0 E2"/>
    </vehicle>
    <vehicle id="SN_car.46" type="car" depart="514.28">
        <route edges="-E2 E1"/>
    </vehicle>
    <vehicle id="NS_car.53" type="car" depart="518.45">
        <route edges="-E1 -E0"/>
    </vehicle>
    <vehicle id="WE_car.46" type="car" depart="524.03">
        <route edges="E0 E2"/>
    </vehicle>
    <vehicle id="SN_car.47" type="car" depart="525.46">
        <route edges="-E2 -E0"/>
    </vehicle>
    <vehicle id="NS_car.54" type="car" depart="528.23">
        <route edges="-E1 -E0"/>
    </vehicle>
    <vehicle id="WE_car.47" type="car" depart="535.42">
        <route edges="E0 E2"/>
    </vehicle>
    <vehicle id="SN_car.48" type="car" depart="536.64">
        <route edges="-E2 -E0"/>
    </vehicle>
    <vehicle id="NS_car.55" type="car" depart="538.01">
        <route edges="-E1 -E0"/>
    </vehicle>
    <vehicle id="WE_car.48" type="car" depart="546.82">
        <route edges="E0 E1"/>
    </vehicle>
    <vehicle id="NS_car.56" type="car" depart="547.79">
        <route edges="-E1 E2"/>
    </vehicle>
    <vehicle id="SN_car.49" type="car" depart="547.82">
        <route edges="-E2 E1"/>
    </vehicle>
    <vehicle id="NS_car.57" type="car" depart="557.57">
        <route edges="-E1 -E0"/>
    </vehicle>
    <vehicle id="WE_car.49" type="car" depart="558.21">
        <route edges="E0 E1"/>
    </vehicle>
    <vehicle id="SN_car.50" type="car" depart="559.00">
        <route edges="-E2 E1"/>
    </vehicle>
    <vehicle id="NS_car.58" type="car" depart="567.36">
        <route edges="-E1 -E0"/>
    </vehicle>
    <vehicle id="WE_car.50" type="car" depart="569.60">
        <route edges="E0 E1"/>
    </vehicle>
    <vehicle id="SN_car.51" type="car" depart="570.18">
        <route edges="-E2 E1"/>
    </vehicle>
    <vehicle id="NS_car.59" type="car" depart="577.14">
        <route edges="-E1 E2"/>
    </vehicle>
    <vehicle id="WE_car.51" type="car" depart="580.99">
        <route edges="E0 E1"/>
    </vehicle>
    <vehicle id="SN_car.52" type="car" depart="581.36">
        <route edges="-E2 E1"/>
    </vehicle>
    <vehicle id="NS_car.60" type="car" depart="586.92">
        <route edges="-E1 -E0"/>
    </vehicle>
    <vehicle id="WE_car.52" type="car" depart="592.38">
        <route edges="E0 E2"/>
    </vehicle>
    <vehicle id="SN_car.53" type="car" depart="592.54">
        <route edges="-E2 E1"/>
    </vehicle>
    <vehicle id="NS_car.61" type="car" depart="596.70">
        <route edges="-E1 -E0"/>
    </vehicle>
    <vehicle id="SN_car.54" type="car" depart="603.72">
        <route edges="-E2 E1"/>
    </vehicle>
    <vehicle id="WE_car.53" type="car" depart="603.78">
        <route edges="E0 E1"/>
    </vehicle>
    <vehicle id="NS_car.62" type="car" depart="606.48">
        <route edges="-E1 -E0"/>
    </vehicle>
    <vehicle id="SN_car.55" type="car" depart="614.90">
        <route edges="-E2 -E0"/>
    </vehicle>
    <vehicle id="WE_car.54" type="car" depart="615.17">
        <route edges="E0 E1"/>
    </vehicle>
    <vehicle id="NS_car.63" type="car" depart="616.27">
        <route edges="-E1 -E0"/>
    </vehicle>
    <vehicle id="NS_car.64" type="car" depart="626.05">
        <route edges="-E1 E2"/>
    </vehicle>
    <vehicle id="SN_car.56" type="car" depart="626.08">
        <route edges="-E2 -E0"/>
    </vehicle>
    <vehicle id="WE_car.55" type="car" depart="626.56">
        <route edges="E0 E1"/>
    </vehicle>
    <vehicle id="NS_car.65" type="car" depart="635.83">
        <route edges="-E1 E2"/>
    </vehicle>
    <vehicle id="SN_car.57" type="car" depart="637.26">
        <route edges="-E2 -E0"/>
    </vehicle>
    <vehicle id="WE_car.56" type="car" depart="637.95">
        <route edges="E0 E2"/>
    </vehicle>
    <vehicle id="NS_car.66" type="car" depart="645.61">
        <route edges="-E1 -E0"/>
    </vehicle>
    <vehicle id="SN_car.58" type="car" depart="648.44">
        <route edges="-E2 E1"/>
    </vehicle>
    <vehicle id="WE_car.57" type="car" depart="649.34">
        <route edges="E0 E1"/>
    </vehicle>
    <vehicle id="NS_car.67" type="car" depart="655.39">
        <route edges="-E1 -E0"/>
    </vehicle>
    <vehicle id="SN_car.59" type="car" depart="659.62">
        <route edges="-E2 -E0"/>
    </vehicle>
    <vehicle id="WE_car.58" type="car" depart="660.74">
        <route edges="E0 E1"/>
    </vehicle>
    <vehicle id="NS_car.68" type="car" depart="665.18">
        <route edges="-E1 -E0"/>
    </vehicle>
    <vehicle id="SN_car.60" type="car" depart="670.80">
        <route edges="-E2 E1"/>
    </vehicle>
    <vehicle id="WE_car.59" type="car" depart="672.13">
        <route edges="E0 E1"/>
    </vehicle>
    <vehicle id="NS_car.69" type="car" depart="674.96">
        <route edges="-E1 -E0"/>
    </vehicle>
    <vehicle id="SN_car.61" type="car" depart="681.98">
        <route edges="-E2 E1"/>
    </vehicle>
    <vehicle id="WE_car.60" type="car" depart="683.52">
        <route edges="E0 E1"/>
    </vehicle>
    <vehicle id="NS_car.70" type="car" depart="684.74">
        <route edges="-E1 -E0"/>
    </vehicle>
    <vehicle id="SN_car.62" type="car" depart="693.16">
        <route edges="-E2 -E0"/>
    </vehicle>
    <vehicle id="NS_car.71" type="car" depart="694.52">
        <route edges="-E1 E2"/>
    </vehicle>
    <vehicle id="WE_car.61" type="car" depart="694.91">
        <route edges="E0 E1"/>
    </vehicle>
    <vehicle id="NS_car.72" type="car" depart="704.30">
        <route edges="-E1 E2"/>
    </vehicle>
    <vehicle id="SN_car.63" type="car" depart="704.34">
        <route edges="-E2 -E0"/>
    </vehicle>
    <vehicle id="WE_car.62" type="car" depart="706.30">
        <route edges="E0 E2"/>
    </vehicle>
    <vehicle id="NS_car.73" type="car" depart="714.09">
        <route edges="-E1 -E0"/>
    </vehicle>
    <vehicle id="SN_car.64" type="car" depart="715.52">
        <route edges="-E2 -E0"/>
    </vehicle>
    <vehicle id="WE_car.63" type="car" depart="717.70">
        <route edges="E0 E2"/>
    </vehicle>
    <vehicle id="NS_car.74" type="car" depart="723.87">
        <route edges="-E1 -E0"/>
    </vehicle>
    <vehicle id="SN_car.65" type="car" depart="726.70">
        <route edges="-E2 E1"/>
    </vehicle>
    <vehicle id="WE_car.64" type="car" depart="729.09">
        <route edges="E0 E2"/>
    </vehicle>
    <vehicle id="NS_car.75" type="car" depart="733.65">
        <route edges="-E1 E2"/>
    </vehicle>
    <vehicle id="SN_car.66" type="car" depart="737.88">
        <route edges="-E2 -E0"/>
    </vehicle>
    <vehicle id="WE_car.65" type="car" depart="740.48">
        <route edges="E0 E1"/>
    </vehicle>
    <vehicle id="NS_car.76" type="car" depart="743.43">
        <route edges="-E1 -E0"/>
    </vehicle>
    <vehicle id="SN_car.67" type="car" depart="749.06">
        <route edges="-E2 -E0"/>
    </vehicle>
    <vehicle id="WE_car.66" type="car" depart="751.87">
        <route edges="E0 E1"/>
    </vehicle>
    <vehicle id="NS_car.77" type="car" depart="753.21">
        <route edges="-E1 -E0"/>
    </vehicle>
    <vehicle id="SN_car.68" type="car" depart="760.24">
        <route edges="-E2 E1"/>
    </vehicle>
    <vehicle id="NS_car.78" type="car" depart="763.00">
        <route edges="-E1 E2"/>
    </vehicle>
    <vehicle id="WE_car.67" type="car" depart="763.26">
        <route edges="E0 E2"/>
    </vehicle>
    <vehicle id="SN_car.69" type="car" depart="771.42">
        <route edges="-E2 -E0"/>
    </vehicle>
    <vehicle id="NS_car.79" type="car" depart="772.78">
        <route edges="-E1 E2"/>
    </vehicle>
    <vehicle id="WE_car.68" type="car" depart="774.66">
        <route edges="E0 E1"/>
    </vehicle>
    <vehicle id="NS_car.80" type="car" depart="782.56">
        <route edges="-E1 -E0"/>
    </vehicle>
    <vehicle id="SN_car.70" type="car" depart="782.60">
        <route edges="-E2 -E0"/>
    </vehicle>
    <vehicle id="WE_car.69" type="car" depart="786.05">
        <route edges="E0 E1"/>
    </vehicle>
    <vehicle id="NS_car.81" type="car" depart="792.34">
        <route edges="-E1 -E0"/>
    </vehicle>
    <vehicle id="SN_car.71" type="car" depart="793.78">
        <route edges="-E2 -E0"/>
    </vehicle>
    <vehicle id="WE_car.70" type="car" depart="797.44">
        <route edges="E0 E2"/>
    </vehicle>
    <vehicle id="NS_car.82" type="car" depart="802.12">
        <route edges="-E1 E2"/>
    </vehicle>
    <vehicle id="SN_car.72" type="car" depart="804.96">
        <route edges="-E2 E1"/>
    </vehicle>
    <vehicle id="WE_car.71" type="car" depart="808.83">
        <route edges="E0 E1"/>
    </vehicle>
    <vehicle id="NS_car.83" type="car" depart="811.91">
        <route edges="-E1 E2"/>
    </vehicle>
    <vehicle id="SN_car.73" type="car" depart="816.14">
        <route edges="-E2 -E0"/>
    </vehicle>
    <vehicle id="WE_car.72" type="car" depart="820.22">
        <route edges="E0 E1"/>
    </vehicle>
    <vehicle id="NS_car.84" type="car" depart="821.69">
        <route edges="-E1 -E0"/>
    </vehicle>
    <vehicle id="SN_car.74" type="car" depart="827.32">
        <route edges="-E2 -E0"/>
    </vehicle>
    <vehicle id="NS_car.85" type="car" depart="831.47">
        <route edges="-E1 -E0"/>
    </vehicle>
    <vehicle id="WE_car.73" type="car" depart="831.62">
        <route edges="E0 E1"/>
    </vehicle>
    <vehicle id="SN_car.75" type="car" depart="838.50">
        <route edges="-E2 E1"/>
    </vehicle>
    <vehicle id="NS_car.86" type="car" depart="841.25">
        <route edges="-E1 E2"/>
    </vehicle>
    <vehicle id="WE_car.74" type="car" depart="843.01">
        <route edges="E0 E1"/>
    </vehicle>
    <vehicle id="SN_car.76" type="car" depart="849.68">
        <route edges="-E2 E1"/>
    </vehicle>
    <vehicle id="NS_car.87" type="car" depart="851.03">
        <route edges="-E1 -E0"/>
    </vehicle>
    <vehicle id="WE_car.75" type="car" depart="854.40">
        <route edges="E0 E1"/>
    </vehicle>
    <vehicle id="NS_car.88" type="car" depart="860.82">
        <route edges="-E1 -E0"/>
    </vehicle>
    <vehicle id="SN_car.77" type="car" depart="860.86">
        <route edges="-E2 -E0"/>
    </vehicle>
    <vehicle id="WE_car.76" type="car" depart="865.79">
        <route edges="E0 E1"/>
    </vehicle>
    <vehicle id="NS_car.89" type="car" depart="870.60">
        <route edges="-E1 -E0"/>
    </vehicle>
    <vehicle id="SN_car.78" type="car" depart="872.04">
        <route edges="-E2 -E0"/>
    </vehicle>
    <vehicle id="WE_car.77" type="car" depart="877.18">
        <route edges="E0 E2"/>
    </vehicle>
    <vehicle id="NS_car.90" type="car" depart="880.38">
        <route edges="-E1 -E0"/>
    </vehicle>
    <vehicle id="SN_car.79" type="car" depart="883.22">
        <route edges="-E2 -E0"/>
    </vehicle>
    <vehicle id="WE_car.78" type="car" depart="888.58">
        <route edges="E0 E1"/>
    </vehicle>
    <vehicle id="NS_car.91" type="car" depart="890.16">
        <route edges="-E1 -E0"/>
    </vehicle>
    <vehicle id="SN_car.80" type="car" depart="894.40">
        <route edges="-E2 E1"/>
    </vehicle>
    <vehicle id="NS_car.92" type="car" depart="899.94">
        <route edges="-E1 -E0"/>
    </vehicle>
    <vehicle id="WE_car.79" type="car" depart="899.97">
        <route edges="E0 E2"/>
    </vehicle>
    <vehicle id="SN_car.81" type="car" depart="905.58">
        <route edges="-E2 -E0"/>
    </vehicle>
    <vehicle id="NS_car.93" type="car" depart="909.73">
        <route edges="-E1 -E0"/>
    </vehicle>
    <vehicle id="WE_car.80" type="car" depart="911.36">
        <route edges="E0 E2"/>
    </vehicle>
    <vehicle id="SN_car.82" type="car" depart="916.76">
        <route edges="-E2 E1"/>
    </vehicle>
    <vehicle id="NS_car.94" type="car" depart="919.51">
        <route edges="-E1 -E0"/>
    </vehicle>
    <vehicle id="WE_car.81" type="car" depart="922.75">
        <route edges="E0 E1"/>
    </vehicle>
    <vehicle id="SN_car.83" type="car" depart="927.94">
        <route edges="-E2 -E0"/>
    </vehicle>
    <vehicle id="NS_car.95" type="car" depart="929.29">
        <route edges="-E1 E2"/>
    </vehicle>
    <vehicle id="WE_car.82" type="car" depart="934.14">
        <route edges="E0 E1"/>
    </vehicle>
    <vehicle id="NS_car.96" type="car" depart="939.07">
        <route edges="-E1 -E0"/>
    </vehicle>
    <vehicle id="SN_car.84" type="car" depart="939.12">
        <route edges="-E2 -E0"/>
    </vehicle>
    <vehicle id="WE_car.83" type="car" depart="945.54">
        <route edges="E0 E1"/>
    </vehicle>
    <vehicle id="NS_car.97" type="car" depart="948.85">
        <route edges="-E1 E2"/>
    </vehicle>
    <vehicle id="SN_car.85" type="car" depart="950.30">
        <route edges="-E2 -E0"/>
    </vehicle>
    <vehicle id="WE_car.84" type="car" depart="956.93">
        <route edges="E0 E2"/>
    </vehicle>
    <vehicle id="NS_car.98" type="car" depart="958.64">
        <route edges="-E1 E2"/>
    </vehicle>
    <vehicle id="SN_car.86" type="car" depart="961.48">
        <route edges="-E2 -E0"/>
    </vehicle>
    <vehicle id="WE_car.85" type="car" depart="968.32">
        <route edges="E0 E1"/>
    </vehicle>
    <vehicle id="NS_car.99" type="car" depart="968.42">
        <route edges="-E1 E2"/>
    </vehicle>
    <vehicle id="SN_car.87" type="car" depart="972.66">
        <route edges="-E2 E1"/>
    </vehicle>
    <vehicle id="NS_car.100" type="car" depart="978.20">
        <route edges="-E1 -E0"/>
    </vehicle>
    <vehicle id="WE_car.86" type="car" depart="979.71">
        <route edges="E0 E1"/>
    </vehicle>
    <vehicle id="SN_car.88" type="car" depart="983.84">
        <route edges="-E2 E1"/>
    </vehicle>
    <vehicle id="NS_car.101" type="car" depart="987.98">
        <route edges="-E1 E2"/>
    </vehicle>
    <vehicle id="WE_car.87" type="car" depart="991.10">
        <route edges="E0 E2"/>
    </vehicle>
    <vehicle id="SN_car.89" type="car" depart="995.02">
        <route edges="-E2 E1"/>
    </vehicle>
    <vehicle id="NS_car.102" type="car" depart="997.76">
        <route edges="-E1 -E0"/>
    </vehicle>
    <vehicle id="WE_car.88" type="car" depart="1002.50">
        <route edges="E0 E2"/>
    </vehicle>
    <vehicle id="SN_car.90" type="car" depart="1006.20">
        <route edges="-E2 -E0"/>
    </vehicle>