<?xml version="1.0" encoding="UTF-8"?>

<!-- generated on 2026-05-22T21:21:38.570118+08:00 by Eclipse SUMO netedit 1.26.0
<neteditConfiguration xmlns:xsi="http://www.w3.org/2001/XMLSchema-instance" xsi:noNamespaceSchemaLocation="http://sumo.dlr.de/xsd/neteditConfiguration.xsd">

    <input>
        <sumo-net-file value="D:\sumo\sumo仿真\T型路口\2.net.xml"/>
    </input>

    <output>
        <output-file value="D:\sumo\sumo仿真\T型路口\2.net.xml"/>
    </output>

    <processing>
        <offset.disable-normalization value="true"/>
    </processing>

    <junctions>
        <no-turnarounds value="true"/>
    </junctions>

    <netedit>
        <new-network value="false"/>
    </netedit>

</neteditConfiguration>
-->

<net version="1.20" junctionCornerDetail="5" limitTurnSpeed="5.50" xmlns:xsi="http://www.w3.org/2001/XMLSchema-instance" xsi:noNamespaceSchemaLocation="http://sumo.dlr.de/xsd/net_file.xsd">

    <location netOffset="0.00,0.00" convBoundary="-89.09,-74.99,2.73,82.94" origBoundary="10000000000.00,10000000000.00,-10000000000.00,-10000000000.00" projParameter="!"/>

    <edge id=":J1_0" function="internal">
        <lane id=":J1_0_0" index="0" speed="7.26" length="10.72" shape="-4.33,16.34 -4.99,13.95 -6.53,12.24 -8.94,11.21 -12.24,10.84"/>
    </edge>
    <edge id=":J1_1" function="internal">
        <lane id=":J1_1_0" index="0" speed="13.89" length="21.14" shape="-4.33,16.34 -4.84,11.66 -5.64,5.85 -6.56,0.06 -7.41,-4.57"/>
    </edge>
    <edge id=":J1_2" function="internal">
        <lane id=":J1_2_0" index="0" speed="13.89" length="21.54" shape="-4.28,-5.22 -3.42,-0.53 -2.48,5.39 -1.66,11.34 -1.14,16.08"/>
    </edge>
    <edge id=":J1_3" function="internal">
        <lane id=":J1_3_0" index="0" speed="8.36" length="6.01" shape="-4.28,-5.22 -3.77,0.43 -3.86,0.75"/>
    </edge>
    <edge id=":J1_6" function="internal">
        <lane id=":J1_6_0" index="0" speed="8.36" length="12.11" shape="-3.86,0.75 -4.92,4.46 -7.74,6.87 -12.22,7.64"/>
    </edge>
    <edge id=":J1_4" function="internal">
        <lane id=":J1_4_0" index="0" speed="6.10" length="9.06" shape="-12.17,1.24 -9.63,0.89 -7.99,-0.19 -7.25,-2.01 -7.41,-4.57"/>
    </edge>
    <edge id=":J1_5" function="internal">
        <lane id=":J1_5_0" index="0" speed="9.23" length="17.95" shape="-12.19,4.44 -7.71,5.20 -4.38,7.39 -2.18,11.01 -1.14,16.08"/>
    </edge>

    <edge id="-E0" from="J1" to="J0" priority="-1">
        <lane id="-E0_0" index="0" speed="13.89" length="76.89" shape="-12.24,10.84 -89.12,10.34"/>
        <lane id="-E0_1" index="1" speed="13.89" length="76.89" shape="-12.22,7.64 -89.10,7.14"/>
    </edge>
    <edge id="-E1" from="J2" to="J1" priority="-1">
        <lane id="-E1_0" index="0" speed="13.89" length="66.96" shape="1.14,83.07 -4.33,16.34"/>
    </edge>
    <edge id="-E2" from="J3" to="J1" priority="-1">
        <lane id="-E2_0" index="0" speed="13.89" length="71.59" shape="-18.83,-75.32 -4.28,-5.22"/>
    </edge>
    <edge id="E0" from="J0" to="J1" priority="-1">
        <lane id="E0_0" index="0" speed="13.89" length="76.89" shape="-89.06,0.74 -12.17,1.24"/>
        <lane id="E0_1" index="1" speed="13.89" length="76.89" shape="-89.08,3.94 -12.19,4.44"/>
    </edge>
    <edge id="E1" from="J1" to="J2" priority="-1">
        <lane id="E1_0" index="0" speed="13.89" length="66.96" shape="-1.14,16.08 4.32,82.81"/>
    </edge>
    <edge id="E2" from="J1" to="J3" priority="-1">
        <lane id="E2_0" index="0" speed="13.89" length="71.59" shape="-7.41,-4.57 -21.97,-74.66"/>
    </edge>

    <tlLogic id="J1" type="static" programID="0" offset="0">
        <phase duration="48" state="GGGgrr"/>
        <phase duration="3"  state="yyyyrr"/>
        <phase duration="42" state="rrrrGG"/>
        <phase duration="3"  state="rrrryy"/>
    </tlLogic>

    <junction id="J0" type="dead_end" x="-89.09" y="5.54" incLanes="-E0_0 -E0_1" intLanes="" shape="-89.09,5.54 -89.13,11.94 -89.09,5.54"/>
    <junction id="J1" type="traffic_light" x="-3.56" y="6.10" incLanes="-E1_0 -E2_0 E0_0 E0_1" intLanes=":J1_0_0 :J1_1_0 :J1_2_0 :J1_6_0 :J1_4_0 :J1_5_0" shape="-5.92,16.47 0.46,15.95 0.07,11.33 -0.27,7.93 -0.63,5.13 -1.10,2.35 -1.77,-1.01 -2.71,-5.55 -8.98,-4.25 -8.97,-2.07 -9.37,-1.32 -10.03,-0.78 -10.96,-0.46 -12.16,-0.36 -12.25,12.44 -8.88,12.91 -7.67,13.47 -6.77,14.25 -6.19,15.25">
        <request index="0" response="000000" foes="000000" cont="0"/>
        <request index="1" response="000000" foes="111000" cont="0"/>
        <request index="2" response="000000" foes="100000" cont="0"/>
        <request index="3" response="000010" foes="100010" cont="1"/>
        <request index="4" response="000010" foes="000010" cont="0"/>
        <request index="5" response="001110" foes="001110" cont="0"/>
    </junction>
    <junction id="J2" type="dead_end" x="2.73" y="82.94" incLanes="E1_0" intLanes="" shape="2.73,82.94 5.92,82.68 2.73,82.94"/>
    <junction id="J3" type="dead_end" x="-20.40" y="-74.99" incLanes="E2_0" intLanes="" shape="-20.40,-74.99 -23.53,-74.34 -20.40,-74.99"/>

    <junction id=":J1_6_0" type="internal" x="-3.86" y="0.75" incLanes=":J1_3_0 -E1_0" intLanes=":J1_1_0 :J1_5_0"/>

    <connection from="-E1" to="-E0" fromLane="0" toLane="0" via=":J1_0_0" tl="J1" linkIndex="0" dir="r" state="O"/>
    <connection from="-E1" to="E2" fromLane="0" toLane="0" via=":J1_1_0" tl="J1" linkIndex="1" dir="s" state="O"/>
    <connection from="-E2" to="E1" fromLane="0" toLane="0" via=":J1_2_0" tl="J1" linkIndex="2" dir="s" state="O"/>
    <connection from="-E2" to="-E0" fromLane="0" toLane="1" via=":J1_3_0" tl="J1" linkIndex="3" dir="l" state="o"/>
    <connection from="E0" to="E2" fromLane="0" toLane="0" via=":J1_4_0" tl="J1" linkIndex="4" dir="r" state="o"/>
    <connection from="E0" to="E1" fromLane="1" toLane="0" via=":J1_5_0" tl="J1" linkIndex="5" dir="l" state="o"/>

    <connection from=":J1_0" to="-E0" fromLane="0" toLane="0" dir="r" state="M"/>
    <connection from=":J1_1" to="E2" fromLane="0" toLane="0" dir="s" state="M"/>
    <connection from=":J1_2" to="E1" fromLane="0" toLane="0" dir="s" state="M"/>
    <connection from=":J1_3" to="-E0" fromLane="0" toLane="1" via=":J1_6_0" dir="l" state="m"/>
    <connection from=":J1_6" to="-E0" fromLane="0" toLane="1" dir="l" state="M"/>
    <connection from=":J1_4" to="E2" fromLane="0" toLane="0" dir="r" state="M"/>
    <connection from=":J1_5" to="E1" fromLane="0" toLane="0" dir="l" state="M"/>

</net>
