<?xml version="1.0" encoding="UTF-8"?>
<routes xmlns:xsi="http://www.w3.org/2001/XMLSchema-instance" xsi:noNamespaceSchemaLocation="http://sumo.dlr.de/xsd/routes_file.xsd">
    <vType id="car" maxSpeed="37" vClass="passenger"/>
    
    <flow id="EW_car" type="car" from="-E1" begin="0" end="3600" number="834"/>
    <flow id="SN_car" type="car" from="-E2" begin="0" end="3600" number="627"/>
    <flow id="NS_car" type="car" from="-E3" begin="0" end="3600" number="585"/>
    <flow id="WE_car" type="car" from="E0" begin="0" end="3600" number="691"/>
</routes>