<?xml version="1.0" encoding="UTF-8"?>

<!-- generated on 2026-05-23 16:18:18 by Eclipse SUMO netedit Version 1.23.1
<neteditConfiguration xmlns:xsi="http://www.w3.org/2001/XMLSchema-instance" xsi:noNamespaceSchemaLocation="http://sumo.dlr.de/xsd/neteditConfiguration.xsd">

    <input>
        <sumo-net-file value="C:\Users\dell\Desktop\路口\乐民街与崇文北路交叉口\sumo工程\demo_18.net.xml"/>
    </input>

    <output>
        <output-file value="C:\Users\dell\Desktop\路口\乐民街与崇文北路交叉口\sumo工程\demo_18.net.xml"/>
    </output>

    <processing>
        <geometry.min-radius.fix.railways value="false"/>
        <geometry.avoid-overlap value="false"/>
        <geometry.max-grade.fix value="false"/>
        <offset.disable-normalization value="true"/>
        <lefthand value="0"/>
    </processing>

    <junctions>
        <no-turnarounds value="true"/>
        <junctions.corner-detail value="5"/>
        <junctions.limit-turn-speed value="5.50"/>
        <rectangular-lane-cut value="0"/>
    </junctions>

    <pedestrian>
        <walkingareas value="0"/>
    </pedestrian>

</neteditConfiguration>
-->

<net version="1.20" junctionCornerDetail="5" limitTurnSpeed="5.50" avoidOverlap="0" xmlns:xsi="http://www.w3.org/2001/XMLSchema-instance" xsi:noNamespaceSchemaLocation="http://sumo.dlr.de/xsd/net_file.xsd">

    <location netOffset="0.00,0.00" convBoundary="-81.12,-81.03,224.32,103.67" origBoundary="-10000000000.00,-10000000000.00,10000000000.00,10000000000.00" projParameter="!"/>

    <edge id=":J1_0" function="internal">
        <lane id=":J1_0_0" index="0" speed="6.95" length="10.90" shape="64.71,26.18 61.24,25.85 58.65,26.42 56.95,27.89 56.11,30.27"/>
    </edge>
    <edge id=":J1_1" function="internal">
        <lane id=":J1_1_0" index="0" speed="13.89" length="33.16" shape="64.71,26.18 32.90,17.33"/>
        <lane id=":J1_1_1" index="1" speed="13.89" length="33.16" shape="65.33,23.04 33.38,14.17"/>
        <lane id=":J1_1_2" index="2" speed="13.89" length="33.16" shape="65.95,19.90 33.86,11.01"/>
    </edge>
    <edge id=":J1_4" function="internal">
        <lane id=":J1_4_0" index="0" speed="11.48" length="7.89" shape="66.58,16.76 59.14,14.14"/>
    </edge>
    <edge id=":J1_20" function="internal">
        <lane id=":J1_20_0" index="0" speed="11.48" length="21.74" shape="59.14,14.14 58.97,14.08 53.96,9.60 51.56,3.31 51.77,-4.79"/>
    </edge>
    <edge id=":J1_5" function="internal">
        <lane id=":J1_5_0" index="0" speed="7.44" length="11.97" shape="64.59,-2.64 64.23,1.32 64.75,4.30 66.16,6.31 68.45,7.34"/>
    </edge>
    <edge id=":J1_6" function="internal">
        <lane id=":J1_6_0" index="0" speed="13.89" length="34.07" shape="64.59,-2.64 56.11,30.27"/>
        <lane id=":J1_6_1" index="1" speed="13.89" length="34.07" shape="61.43,-3.17 52.95,29.83"/>
        <lane id=":J1_6_2" index="2" speed="13.89" length="34.07" shape="58.27,-3.70 49.78,29.39"/>
    </edge>
    <edge id=":J1_9" function="internal">
        <lane id=":J1_9_0" index="0" speed="11.47" length="8.11" shape="55.12,-4.23 52.58,3.47"/>
    </edge>
    <edge id=":J1_21" function="internal">
        <lane id=":J1_21_0" index="0" speed="11.47" length="21.54" shape="52.58,3.47 48.18,8.58 41.95,11.09 33.86,11.01"/>
    </edge>
    <edge id=":J1_10" function="internal">
        <lane id=":J1_10_0" index="0" speed="7.36" length="11.77" shape="35.82,-1.73 39.69,-1.47 42.58,-2.07 44.51,-3.53 45.46,-5.85"/>
    </edge>
    <edge id=":J1_11" function="internal">
        <lane id=":J1_11_0" index="0" speed="13.89" length="33.78" shape="35.82,-1.73 45.90,0.40 52.89,2.71 59.50,5.07 68.45,7.34"/>
        <lane id=":J1_11_1" index="1" speed="13.89" length="33.78" shape="35.33,1.44 45.37,3.55 52.31,5.85 58.88,8.21 67.83,10.48"/>
        <lane id=":J1_11_2" index="2" speed="13.89" length="33.78" shape="34.85,4.60 44.83,6.71 51.73,9.00 58.27,11.35 67.20,13.62"/>
    </edge>
    <edge id=":J1_14" function="internal">
        <lane id=":J1_14_0" index="0" speed="11.53" length="9.07" shape="34.36,7.76 42.08,10.18 42.82,10.82"/>
    </edge>
    <edge id=":J1_22" function="internal">
        <lane id=":J1_22_0" index="0" speed="11.53" length="21.08" shape="42.82,10.82 47.22,14.59 49.79,21.00 49.78,29.39"/>
    </edge>
    <edge id=":J1_15" function="internal">
        <lane id=":J1_15_0" index="0" speed="7.55" length="12.40" shape="37.10,27.63 37.33,23.44 36.70,20.33 35.23,18.29 32.90,17.33"/>
    </edge>
    <edge id=":J1_16" function="internal">
        <lane id=":J1_16_0" index="0" speed="13.89" length="34.46" shape="37.10,27.63 39.05,17.27 41.24,10.02 43.44,3.21 45.46,-5.85"/>
        <lane id=":J1_16_1" index="1" speed="13.89" length="34.46" shape="40.27,28.07 42.22,17.74 44.40,10.53 46.59,3.74 48.61,-5.32"/>
        <lane id=":J1_16_2" index="2" speed="13.89" length="34.46" shape="43.44,28.51 45.38,18.21 47.56,11.03 49.75,4.26 51.77,-4.79"/>
    </edge>
    <edge id=":J1_19" function="internal">
        <lane id=":J1_19_0" index="0" speed="11.13" length="9.36" shape="46.61,28.95 48.88,20.90 49.50,20.12"/>
    </edge>
    <edge id=":J1_23" function="internal">
        <lane id=":J1_23_0" index="0" speed="11.13" length="20.31" shape="49.50,20.12 53.07,15.67 59.17,13.24 67.20,13.62"/>
    </edge>
    <edge id=":J5_0" function="internal">
        <lane id=":J5_0_0" index="0" speed="13.89" length="8.56" shape="68.61,-43.70 68.73,-41.16 69.58,-39.45 70.40,-37.74 70.45,-35.21"/>
        <lane id=":J5_0_1" index="1" speed="13.89" length="8.56" shape="65.45,-44.18 65.57,-41.67 66.42,-39.97 67.24,-38.28 67.30,-35.78"/>
        <lane id=":J5_0_2" index="2" speed="13.89" length="8.56" shape="62.29,-44.66 62.41,-42.17 63.26,-40.50 64.09,-38.82 64.15,-36.35"/>
        <lane id=":J5_0_3" index="3" speed="13.89" length="8.56" shape="62.29,-44.66 61.00,-36.91"/>
    </edge>
    <edge id=":J6_0" function="internal">
        <lane id=":J6_0_0" index="0" speed="13.89" length="8.60" shape="-17.00,-6.81 -14.48,-6.94 -12.78,-7.79 -11.09,-8.64 -8.57,-8.75"/>
        <lane id=":J6_0_1" index="1" speed="13.89" length="8.60" shape="-17.47,-3.64 -14.96,-3.77 -13.27,-4.63 -11.58,-5.48 -9.07,-5.59"/>
        <lane id=":J6_0_2" index="2" speed="13.89" length="8.60" shape="-17.94,-0.47 -15.44,-0.61 -13.75,-1.47 -12.07,-2.32 -9.57,-2.43"/>
        <lane id=":J6_0_3" index="3" speed="13.89" length="8.60" shape="-17.94,-0.47 -10.07,0.73"/>
    </edge>
    <edge id=":J7_0" function="internal">
        <lane id=":J7_0_0" index="0" speed="13.89" length="8.60" shape="132.53,36.39 130.02,36.40 128.30,37.18 126.58,37.96 124.06,37.97"/>
        <lane id=":J7_0_1" index="1" speed="13.89" length="8.60" shape="133.16,33.25 130.65,33.26 128.92,34.04 127.20,34.82 124.69,34.83"/>
        <lane id=":J7_0_2" index="2" speed="13.89" length="8.60" shape="133.78,30.11 131.27,30.12 129.55,30.90 127.82,31.68 125.31,31.69"/>
        <lane id=":J7_0_3" index="3" speed="13.89" length="8.60" shape="133.78,30.11 125.93,28.55"/>
    </edge>

    <edge id="-E0" from="J1" to="J0" priority="-1">
        <lane id="-E0_0" index="0" speed="13.89" length="116.57" shape="32.90,17.33 -82.33,-0.32"/>
        <lane id="-E0_1" index="1" speed="13.89" length="116.57" shape="33.38,14.17 -81.85,-3.49"/>
        <lane id="-E0_2" index="2" speed="13.89" length="116.57" shape="33.86,11.01 -81.36,-6.65"/>
    </edge>
    <edge id="-E1" from="J2" to="J7" priority="-1">
        <lane id="-E1_0" index="0" speed="13.89" length="91.99" shape="222.76,54.32 132.53,36.39"/>
        <lane id="-E1_1" index="1" speed="13.89" length="91.99" shape="223.38,51.18 133.16,33.25"/>
        <lane id="-E1_2" index="2" speed="13.89" length="91.99" shape="224.01,48.04 133.78,30.11"/>
    </edge>
    <edge id="-E1.42" from="J7" to="J1" priority="-1">
        <lane id="-E1.42_0" index="0" speed="13.89" length="60.52" shape="124.06,37.97 64.71,26.18"/>
        <lane id="-E1.42_1" index="1" speed="13.89" length="60.52" shape="124.69,34.83 65.33,23.04"/>
        <lane id="-E1.42_2" index="2" speed="13.89" length="60.52" shape="125.31,31.69 65.95,19.90"/>
        <lane id="-E1.42_3" index="3" speed="13.89" length="60.52" shape="125.93,28.55 66.58,16.76"/>
    </edge>
    <edge id="-E2" from="J3" to="J5" priority="-1">
        <lane id="-E2_0" index="0" speed="13.89" length="36.54" shape="74.10,-79.83 68.61,-43.70"/>
        <lane id="-E2_1" index="1" speed="13.89" length="36.54" shape="70.94,-80.31 65.45,-44.18"/>
        <lane id="-E2_2" index="2" speed="13.89" length="36.54" shape="67.77,-80.79 62.29,-44.66"/>
    </edge>
    <edge id="-E2.41" from="J5" to="J1" priority="-1">
        <lane id="-E2.41_0" index="0" speed="13.89" length="33.15" shape="70.45,-35.21 64.59,-2.64"/>
        <lane id="-E2.41_1" index="1" speed="13.89" length="33.15" shape="67.30,-35.78 61.43,-3.17"/>
        <lane id="-E2.41_2" index="2" speed="13.89" length="33.15" shape="64.15,-36.35 58.27,-3.70"/>
        <lane id="-E2.41_3" index="3" speed="13.89" length="33.15" shape="61.00,-36.91 55.12,-4.23"/>
    </edge>
    <edge id="-E3" from="J4" to="J1" priority="-1">
        <lane id="-E3_0" index="0" speed="13.89" length="75.22" shape="26.76,102.13 37.10,27.63"/>
        <lane id="-E3_1" index="1" speed="13.89" length="75.22" shape="29.93,102.57 40.27,28.07"/>
        <lane id="-E3_2" index="2" speed="13.89" length="75.22" shape="33.10,103.01 43.44,28.51"/>
        <lane id="-E3_3" index="3" speed="13.89" length="75.22" shape="36.27,103.45 46.61,28.95"/>
    </edge>
    <edge id="E0" from="J0" to="J6" priority="-1" length="33.78">
        <lane id="E0_0" index="0" speed="13.89" length="33.78" shape="-79.95,-16.14 -17.00,-6.81"/>
        <lane id="E0_1" index="1" speed="13.89" length="33.78" shape="-80.42,-12.98 -17.47,-3.64"/>
        <lane id="E0_2" index="2" speed="13.89" length="33.78" shape="-80.89,-9.81 -17.94,-0.47"/>
    </edge>
    <edge id="E0.40" from="J6" to="J1" priority="-1" length="45.60">
        <lane id="E0.40_0" index="0" speed="13.89" length="45.60" shape="-8.57,-8.75 35.82,-1.73"/>
        <lane id="E0.40_1" index="1" speed="13.89" length="45.60" shape="-9.07,-5.59 35.33,1.44"/>
        <lane id="E0.40_2" index="2" speed="13.89" length="45.60" shape="-9.57,-2.43 34.85,4.60"/>
        <lane id="E0.40_3" index="3" speed="13.89" length="45.60" shape="-10.07,0.73 34.36,7.76"/>
    </edge>
    <edge id="E1" from="J1" to="J2" priority="-1">
        <lane id="E1_0" index="0" speed="13.89" length="160.51" shape="68.45,7.34 225.88,38.62"/>
        <lane id="E1_1" index="1" speed="13.89" length="160.51" shape="67.83,10.48 225.26,41.76"/>
        <lane id="E1_2" index="2" speed="13.89" length="160.51" shape="67.20,13.62 224.63,44.90"/>
    </edge>
    <edge id="E2" from="J1" to="J3" priority="-1">
        <lane id="E2_0" index="0" speed="13.89" length="77.57" shape="45.46,-5.85 58.30,-82.35"/>
        <lane id="E2_1" index="1" speed="13.89" length="77.57" shape="48.61,-5.32 61.46,-81.82"/>
        <lane id="E2_2" index="2" speed="13.89" length="77.57" shape="51.77,-4.79 64.61,-81.29"/>
    </edge>
    <edge id="E3" from="J1" to="J4" priority="-1">
        <lane id="E3_0" index="0" speed="13.89" length="75.22" shape="56.11,30.27 45.77,104.77"/>
        <lane id="E3_1" index="1" speed="13.89" length="75.22" shape="52.95,29.83 42.60,104.33"/>
        <lane id="E3_2" index="2" speed="13.89" length="75.22" shape="49.78,29.39 39.43,103.89"/>
    </edge>

    <tlLogic id="J1" type="static" programID="0" offset="0">
        <phase duration="34" state="GGGGgGrrrrGGGGgGrrrr"/>
        <phase duration="3"  state="GyyyyGrrrrGyyyyGrrrr"/>
        <phase duration="3"  state="GrrrrGrrrrGrrrrGrrrr"/>
        <phase duration="34" state="GrrrrGGGGgGrrrrGGGGg"/>
        <phase duration="3"  state="GrrrrGyyyyGrrrrGyyyy"/>
        <phase duration="3"  state="GrrrrGrrrrGrrrrGrrrr"/>
    </tlLogic>

    <junction id="J0" type="dead_end" x="-81.12" y="-8.23" incLanes="-E0_0 -E0_1 -E0_2" intLanes="" shape="-81.12,-8.23 -79.71,-17.73 -82.57,1.26"/>
    <junction id="J1" type="traffic_light" x="50.58" y="11.95" incLanes="-E1.42_0 -E1.42_1 -E1.42_2 -E1.42_3 -E2.41_0 -E2.41_1 -E2.41_2 -E2.41_3 E0.40_0 E0.40_1 E0.40_2 E0.40_3 -E3_0 -E3_1 -E3_2 -E3_3" intLanes=":J1_0_0 :J1_1_0 :J1_1_1 :J1_1_2 :J1_20_0 :J1_5_0 :J1_6_0 :J1_6_1 :J1_6_2 :J1_21_0 :J1_10_0 :J1_11_0 :J1_11_1 :J1_11_2 :J1_22_0 :J1_15_0 :J1_16_0 :J1_16_1 :J1_16_2 :J1_23_0" shape="64.40,27.74 68.76,5.77 66.73,4.52 66.15,3.35 65.86,1.81 65.87,-0.10 66.16,-2.38 43.88,-6.12 42.72,-4.05 41.59,-3.44 40.11,-3.12 38.26,-3.07 36.06,-3.31 32.65,18.92 34.73,20.13 35.34,21.34 35.68,22.96 35.74,24.98 35.51,27.41 57.70,30.49 58.69,28.42 59.65,27.82 60.92,27.51 62.50,27.48">
        <request index="0"  response="00000000000000000000" foes="00000000000111000000" cont="0"/>
        <request index="1"  response="10000000001000000000" foes="11111100001111000000" cont="0"/>
        <request index="2"  response="10000000001000000000" foes="11111100001111000000" cont="0"/>
        <request index="3"  response="10000000001000000000" foes="11111100001111000000" cont="0"/>
        <request index="4"  response="10000011101000000000" foes="11110011101111000000" cont="1"/>
        <request index="5"  response="00000011100000000000" foes="00000011100000000000" cont="0"/>
        <request index="6"  response="00000111100000011111" foes="10000111100000011111" cont="0"/>
        <request index="7"  response="00000111100000011111" foes="10000111100000011111" cont="0"/>
        <request index="8"  response="00000111100000011111" foes="10000111100000011111" cont="0"/>
        <request index="9"  response="01110111100000011110" foes="01110111100000011110" cont="1"/>
        <request index="10" response="00000000000000000000" foes="01110000000000000000" cont="0"/>
        <request index="11" response="10000000001000000000" foes="11110000001111110000" cont="0"/>
        <request index="12" response="10000000001000000000" foes="11110000001111110000" cont="0"/>
        <request index="13" response="10000000001000000000" foes="11110000001111110000" cont="0"/>
        <request index="14" response="10000000001000001110" foes="11110000001111001110" cont="1"/>
        <request index="15" response="00000000000000001110" foes="00000000000000001110" cont="0"/>
        <request index="16" response="00000111110000011110" foes="00000111111000011110" cont="0"/>
        <request index="17" response="00000111110000011110" foes="00000111111000011110" cont="0"/>
        <request index="18" response="00000111110000011110" foes="00000111111000011110" cont="0"/>
        <request index="19" response="00000111100111011110" foes="00000111100111011110" cont="1"/>
    </junction>
    <junction id="J2" type="dead_end" x="224.32" y="46.47" incLanes="E1_0 E1_1 E1_2" intLanes="" shape="224.32,46.47 226.19,37.05 224.32,46.47"/>
    <junction id="J3" type="dead_end" x="66.19" y="-81.03" incLanes="E2_0 E2_1 E2_2" intLanes="" shape="66.19,-81.03 75.68,-79.59 56.72,-82.62"/>
    <junction id="J4" type="dead_end" x="37.85" y="103.67" incLanes="E3_0 E3_1 E3_2" intLanes="" shape="37.85,103.67 47.36,104.99 37.85,103.67"/>
    <junction id="J5" type="priority" x="60.12" y="-41.05" incLanes="-E2_0 -E2_1 -E2_2" intLanes=":J5_0_0 :J5_0_1 :J5_0_2 :J5_0_3" shape="70.20,-43.46 60.70,-44.90 59.43,-37.20 72.02,-34.93 71.75,-38.09 71.15,-39.19 70.55,-40.28 70.16,-41.63">
        <request index="0" response="0000" foes="0000" cont="0"/>
        <request index="1" response="0000" foes="0000" cont="0"/>
        <request index="2" response="0000" foes="0000" cont="0"/>
        <request index="3" response="0000" foes="0000" cont="0"/>
    </junction>
    <junction id="J6" type="priority" x="-14.25" y="1.69" incLanes="E0_0 E0_1 E0_2" intLanes=":J6_0_0 :J6_0_1 :J6_0_2 :J6_0_3" shape="-10.32,2.31 -8.32,-10.33 -11.46,-9.99 -12.54,-9.38 -13.62,-8.76 -14.95,-8.36 -16.77,-8.39 -18.17,1.11">
        <request index="0" response="0000" foes="0000" cont="0"/>
        <request index="1" response="0000" foes="0000" cont="0"/>
        <request index="2" response="0000" foes="0000" cont="0"/>
        <request index="3" response="0000" foes="0000" cont="0"/>
    </junction>
    <junction id="J7" type="priority" x="130.17" y="27.76" incLanes="-E1_0 -E1_1 -E1_2" intLanes=":J7_0_0 :J7_0_1 :J7_0_2 :J7_0_3" shape="132.22,37.96 134.09,28.54 126.25,26.98 123.75,39.54 126.89,39.31 129.09,38.18 130.42,37.84">
        <request index="0" response="0000" foes="0000" cont="0"/>
        <request index="1" response="0000" foes="0000" cont="0"/>
        <request index="2" response="0000" foes="0000" cont="0"/>
        <request index="3" response="0000" foes="0000" cont="0"/>
    </junction>

    <junction id=":J1_20_0" type="internal" x="59.14" y="14.14" incLanes=":J1_4_0 E0.40_0 E0.40_1 E0.40_2" intLanes=":J1_6_0 :J1_6_1 :J1_6_2 :J1_9_0 :J1_10_0 :J1_11_0 :J1_11_1 :J1_11_2 :J1_16_0 :J1_16_1 :J1_16_2 :J1_19_0"/>
    <junction id=":J1_21_0" type="internal" x="52.58" y="3.47" incLanes=":J1_9_0 -E3_0 -E3_1 -E3_2" intLanes=":J1_1_0 :J1_1_1 :J1_1_2 :J1_4_0 :J1_11_0 :J1_11_1 :J1_11_2 :J1_14_0 :J1_15_0 :J1_16_0 :J1_16_1 :J1_16_2"/>
    <junction id=":J1_22_0" type="internal" x="42.82" y="10.82" incLanes=":J1_14_0 -E1.42_0 -E1.42_1 -E1.42_2" intLanes=":J1_0_0 :J1_1_0 :J1_1_1 :J1_1_2 :J1_6_0 :J1_6_1 :J1_6_2 :J1_9_0 :J1_16_0 :J1_16_1 :J1_16_2 :J1_19_0"/>
    <junction id=":J1_23_0" type="internal" x="49.50" y="20.12" incLanes=":J1_19_0 -E2.41_0 -E2.41_1 -E2.41_2" intLanes=":J1_1_0 :J1_1_1 :J1_1_2 :J1_4_0 :J1_5_0 :J1_6_0 :J1_6_1 :J1_6_2 :J1_11_0 :J1_11_1 :J1_11_2 :J1_14_0"/>

    <connection from="-E1" to="-E1.42" fromLane="0" toLane="0" via=":J7_0_0" dir="s" state="M"/>
    <connection from="-E1" to="-E1.42" fromLane="1" toLane="1" via=":J7_0_1" dir="s" state="M"/>
    <connection from="-E1" to="-E1.42" fromLane="2" toLane="2" via=":J7_0_2" dir="s" state="M"/>
    <connection from="-E1" to="-E1.42" fromLane="2" toLane="3" via=":J7_0_3" dir="s" state="M"/>
    <connection from="-E1.42" to="E3" fromLane="0" toLane="0" via=":J1_0_0" tl="J1" linkIndex="0" dir="r" state="O"/>
    <connection from="-E1.42" to="-E0" fromLane="0" toLane="0" via=":J1_1_0" tl="J1" linkIndex="1" dir="s" state="O"/>
    <connection from="-E1.42" to="-E0" fromLane="1" toLane="1" via=":J1_1_1" tl="J1" linkIndex="2" dir="s" state="O"/>
    <connection from="-E1.42" to="-E0" fromLane="2" toLane="2" via=":J1_1_2" tl="J1" linkIndex="3" dir="s" state="O"/>
    <connection from="-E1.42" to="E2" fromLane="3" toLane="2" via=":J1_4_0" tl="J1" linkIndex="4" dir="l" state="o"/>
    <connection from="-E2" to="-E2.41" fromLane="0" toLane="0" via=":J5_0_0" dir="s" state="M"/>
    <connection from="-E2" to="-E2.41" fromLane="1" toLane="1" via=":J5_0_1" dir="s" state="M"/>
    <connection from="-E2" to="-E2.41" fromLane="2" toLane="2" via=":J5_0_2" dir="s" state="M"/>
    <connection from="-E2" to="-E2.41" fromLane="2" toLane="3" via=":J5_0_3" dir="s" state="M"/>
    <connection from="-E2.41" to="E1" fromLane="0" toLane="0" via=":J1_5_0" tl="J1" linkIndex="5" dir="r" state="o"/>
    <connection from="-E2.41" to="E3" fromLane="0" toLane="0" via=":J1_6_0" tl="J1" linkIndex="6" dir="s" state="o"/>
    <connection from="-E2.41" to="E3" fromLane="1" toLane="1" via=":J1_6_1" tl="J1" linkIndex="7" dir="s" state="o"/>
    <connection from="-E2.41" to="E3" fromLane="2" toLane="2" via=":J1_6_2" tl="J1" linkIndex="8" dir="s" state="o"/>
    <connection from="-E2.41" to="-E0" fromLane="3" toLane="2" via=":J1_9_0" tl="J1" linkIndex="9" dir="l" state="o"/>
    <connection from="-E3" to="-E0" fromLane="0" toLane="0" via=":J1_15_0" tl="J1" linkIndex="15" dir="r" state="o"/>
    <connection from="-E3" to="E2" fromLane="0" toLane="0" via=":J1_16_0" tl="J1" linkIndex="16" dir="s" state="o"/>
    <connection from="-E3" to="E2" fromLane="1" toLane="1" via=":J1_16_1" tl="J1" linkIndex="17" dir="s" state="o"/>
    <connection from="-E3" to="E2" fromLane="2" toLane="2" via=":J1_16_2" tl="J1" linkIndex="18" dir="s" state="o"/>
    <connection from="-E3" to="E1" fromLane="3" toLane="2" via=":J1_19_0" tl="J1" linkIndex="19" dir="l" state="o"/>
    <connection from="E0" to="E0.40" fromLane="0" toLane="0" via=":J6_0_0" dir="s" state="M"/>
    <connection from="E0" to="E0.40" fromLane="1" toLane="1" via=":J6_0_1" dir="s" state="M"/>
    <connection from="E0" to="E0.40" fromLane="2" toLane="2" via=":J6_0_2" dir="s" state="M"/>
    <connection from="E0" to="E0.40" fromLane="2" toLane="3" via=":J6_0_3" dir="s" state="M"/>
    <connection from="E0.40" to="E2" fromLane="0" toLane="0" via=":J1_10_0" tl="J1" linkIndex="10" dir="r" state="O"/>
    <connection from="E0.40" to="E1" fromLane="0" toLane="0" via=":J1_11_0" tl="J1" linkIndex="11" dir="s" state="O"/>
    <connection from="E0.40" to="E1" fromLane="1" toLane="1" via=":J1_11_1" tl="J1" linkIndex="12" dir="s" state="O"/>
    <connection from="E0.40" to="E1" fromLane="2" toLane="2" via=":J1_11_2" tl="J1" linkIndex="13" dir="s" state="O"/>
    <connection from="E0.40" to="E3" fromLane="3" toLane="2" via=":J1_14_0" tl="J1" linkIndex="14" dir="l" state="o"/>

    <connection from=":J1_0" to="E3" fromLane="0" toLane="0" dir="r" state="M"/>
    <connection from=":J1_1" to="-E0" fromLane="0" toLane="0" dir="s" state="M"/>
    <connection from=":J1_1" to="-E0" fromLane="1" toLane="1" dir="s" state="M"/>
    <connection from=":J1_1" to="-E0" fromLane="2" toLane="2" dir="s" state="M"/>
    <connection from=":J1_4" to="E2" fromLane="0" toLane="2" via=":J1_20_0" dir="l" state="m"/>
    <connection from=":J1_20" to="E2" fromLane="0" toLane="2" dir="l" state="M"/>
    <connection from=":J1_5" to="E1" fromLane="0" toLane="0" dir="r" state="M"/>
    <connection from=":J1_6" to="E3" fromLane="0" toLane="0" dir="s" state="M"/>
    <connection from=":J1_6" to="E3" fromLane="1" toLane="1" dir="s" state="M"/>
    <connection from=":J1_6" to="E3" fromLane="2" toLane="2" dir="s" state="M"/>
    <connection from=":J1_9" to="-E0" fromLane="0" toLane="2" via=":J1_21_0" dir="l" state="m"/>
    <connection from=":J1_21" to="-E0" fromLane="0" toLane="2" dir="l" state="M"/>
    <connection from=":J1_10" to="E2" fromLane="0" toLane="0" dir="r" state="M"/>
    <connection from=":J1_11" to="E1" fromLane="0" toLane="0" dir="s" state="M"/>
    <connection from=":J1_11" to="E1" fromLane="1" toLane="1" dir="s" state="M"/>
    <connection from=":J1_11" to="E1" fromLane="2" toLane="2" dir="s" state="M"/>
    <connection from=":J1_14" to="E3" fromLane="0" toLane="2" via=":J1_22_0" dir="l" state="m"/>
    <connection from=":J1_22" to="E3" fromLane="0" toLane="2" dir="l" state="M"/>
    <connection from=":J1_15" to="-E0" fromLane="0" toLane="0" dir="r" state="M"/>
    <connection from=":J1_16" to="E2" fromLane="0" toLane="0" dir="s" state="M"/>
    <connection from=":J1_16" to="E2" fromLane="1" toLane="1" dir="s" state="M"/>
    <connection from=":J1_16" to="E2" fromLane="2" toLane="2" dir="s" state="M"/>
    <connection from=":J1_19" to="E1" fromLane="0" toLane="2" via=":J1_23_0" dir="l" state="m"/>
    <connection from=":J1_23" to="E1" fromLane="0" toLane="2" dir="l" state="M"/>
    <connection from=":J5_0" to="-E2.41" fromLane="0" toLane="0" dir="s" state="M"/>
    <connection from=":J5_0" to="-E2.41" fromLane="1" toLane="1" dir="s" state="M"/>
    <connection from=":J5_0" to="-E2.41" fromLane="2" toLane="2" dir="s" state="M"/>
    <connection from=":J5_0" to="-E2.41" fromLane="3" toLane="3" dir="s" state="M"/>
    <connection from=":J6_0" to="E0.40" fromLane="0" toLane="0" dir="s" state="M"/>
    <connection from=":J6_0" to="E0.40" fromLane="1" toLane="1" dir="s" state="M"/>
    <connection from=":J6_0" to="E0.40" fromLane="2" toLane="2" dir="s" state="M"/>
    <connection from=":J6_0" to="E0.40" fromLane="3" toLane="3" dir="s" state="M"/>
    <connection from=":J7_0" to="-E1.42" fromLane="0" toLane="0" dir="s" state="M"/>
    <connection from=":J7_0" to="-E1.42" fromLane="1" toLane="1" dir="s" state="M"/>
    <connection from=":J7_0" to="-E1.42" fromLane="2" toLane="2" dir="s" state="M"/>
    <connection from=":J7_0" to="-E1.42" fromLane="3" toLane="3" dir="s" state="M"/>

</net>
