<?xml version="1.0" encoding="UTF-8"?>

<!-- generated on 2026-05-23T12:04:36.739126+08:00 by Eclipse SUMO jtrrouter 1.26.0
<jtrrouterConfiguration xmlns:xsi="http://www.w3.org/2001/XMLSchema-instance" xsi:noNamespaceSchemaLocation="http://sumo.dlr.de/xsd/jtrrouterConfiguration.xsd">

    <input>
        <net-file value="demo_6.net.xml"/>
        <route-files value="demo_6.flow.xml"/>
        <turn-ratio-files value="demo_6.turn.xml"/>
    </input>

    <output>
        <output-file value="demo_6.rou.xml"/>
    </output>

    <time>
        <begin value="0"/>
        <end value="3600"/>
    </time>

</jtrrouterConfiguration>
-->

<routes xmlns:xsi="http://www.w3.org/2001/XMLSchema-instance" xsi:noNamespaceSchemaLocation="http://sumo.dlr.de/xsd/routes_file.xsd">
    <vType id="car" maxSpeed="37.00" vClass="passenger"/>
    <vehicle id="EW_car.0" type="car" depart="0.00">
        <route edges="-E1 E3"/>
    </vehicle>
    <vehicle id="NS_car.0" type="car" depart="0.00">
        <route edges="-E3 E1"/>
    </vehicle>
    <vehicle id="SN_car.0" type="car" depart="0.00">
        <route edges="-E2 -E0"/>
    </vehicle>
    <vehicle id="WE_car.0" type="car" depart="0.00">
        <route edges="E0 E1"/>
    </vehicle>
    <vehicle id="WE_car.1" type="car" depart="7.79">
        <route edges="E0 E1"/>
    </vehicle>
    <vehicle id="EW_car.1" type="car" depart="8.28">
        <route edges="-E1 -E0"/>
    </vehicle>
    <vehicle id="NS_car.1" type="car" depart="9.70">
        <route edges="-E3 E1"/>
    </vehicle>
    <vehicle id="SN_car.1" type="car" depart="10.68">
        <route edges="-E2 E1"/>
    </vehicle>
    <vehicle id="WE_car.2" type="car" depart="15.58">
        <route edges="E0 E1"/>
    </vehicle>
    <vehicle id="EW_car.2" type="car" depart="16.55">
        <route edges="-E1 E3"/>
    </vehicle>
    <vehicle id="NS_car.2" type="car" depart="19.41">
        <route edges="-E3 -E0"/>
    </vehicle>
    <vehicle id="SN_car.2" type="car" depart="21.36">
        <route edges="-E2 E1"/>
    </vehicle>
    <vehicle id="WE_car.3" type="car" depart="23.38">
        <route edges="E0 E1"/>
    </vehicle>
    <vehicle id="EW_car.3" type="car" depart="24.83">
        <route edges="-E1 -E0"/>
    </vehicle>
    <vehicle id="NS_car.3" type="car" depart="29.11">
        <route edges="-E3 E1"/>
    </vehicle>
    <vehicle id="WE_car.4" type="car" depart="31.17">
        <route edges="E0 E1"/>
    </vehicle>
    <vehicle id="SN_car.3" type="car" depart="32.05">
        <route edges="-E2 -E0"/>
    </vehicle>
    <vehicle id="EW_car.4" type="car" depart="33.10">
        <route edges="-E1 E3"/>
    </vehicle>
    <vehicle id="NS_car.4" type="car" depart="38.81">
        <route edges="-E3 E1"/>
    </vehicle>
    <vehicle id="WE_car.5" type="car" depart="38.96">
        <route edges="E0 E1"/>
    </vehicle>
    <vehicle id="EW_car.5" type="car" depart="41.38">
        <route edges="-E1 -E0"/>
    </vehicle>
    <vehicle id="SN_car.4" type="car" depart="42.73">
        <route edges="-E2 E1"/>
    </vehicle>
    <vehicle id="WE_car.6" type="car" depart="46.75">
        <route edges="E0 E1"/>
    </vehicle>
    <vehicle id="NS_car.5" type="car" depart="48.52">
        <route edges="-E3 E1"/>
    </vehicle>
    <vehicle id="EW_car.6" type="car" depart="49.65">
        <route edges="-E1 E3"/>
    </vehicle>
    <vehicle id="SN_car.5" type="car" depart="53.41">
        <route edges="-E2 E1"/>
    </vehicle>
    <vehicle id="WE_car.7" type="car" depart="54.54">
        <route edges="E0 E2"/>
    </vehicle>
    <vehicle id="EW_car.7" type="car" depart="57.93">
        <route edges="-E1 -E0"/>
    </vehicle>
    <vehicle id="NS_car.6" type="car" depart="58.22">
        <route edges="-E3 E1"/>
    </vehicle>
    <vehicle id="WE_car.8" type="car" depart="62.34">
        <route edges="E0 E1"/>
    </vehicle>
    <vehicle id="SN_car.6" type="car" depart="64.09">
        <route edges="-E2 -E0"/>
    </vehicle>
    <vehicle id="EW_car.8" type="car" depart="66.20">
        <route edges="-E1 -E0"/>
    </vehicle>
    <vehicle id="NS_car.7" type="car" depart="67.92">
        <route edges="-E3 E1"/>
    </vehicle>
    <vehicle id="WE_car.9" type="car" depart="70.13">
        <route edges="E0 E1"/>
    </vehicle>
    <vehicle id="EW_car.9" type="car" depart="74.48">
        <route edges="-E1 E3"/>
    </vehicle>
    <vehicle id="SN_car.7" type="car" depart="74.77">
        <route edges="-E2 -E0"/>
    </vehicle>
    <vehicle id="NS_car.8" type="car" depart="77.62">
        <route edges="-E3 E1"/>
    </vehicle>
    <vehicle id="WE_car.10" type="car" depart="77.92">
        <route edges="E0 E1"/>
    </vehicle>
    <vehicle id="EW_car.10" type="car" depart="82.75">
        <route edges="-E1 -E0"/>
    </vehicle>
    <vehicle id="SN_car.8" type="car" depart="85.46">
        <route edges="-E2 -E0"/>
    </vehicle>
    <vehicle id="WE_car.11" type="car" depart="85.71">
        <route edges="E0 E1"/>
    </vehicle>
    <vehicle id="NS_car.9" type="car" depart="87.33">
        <route edges="-E3 E2"/>
    </vehicle>
    <vehicle id="EW_car.11" type="car" depart="91.03">
        <route edges="-E1 -E0"/>
    </vehicle>
    <vehicle id="WE_car.12" type="car" depart="93.50">
        <route edges="E0 E1"/>
    </vehicle>
    <vehicle id="SN_car.9" type="car" depart="96.14">
        <route edges="-E2 -E0"/>
    </vehicle>
    <vehicle id="NS_car.10" type="car" depart="97.03">
        <route edges="-E3 E1"/>
    </vehicle>
    <vehicle id="EW_car.12" type="car" depart="99.30">
        <route edges="-E1 -E0"/>
    </vehicle>
    <vehicle id="WE_car.13" type="car" depart="101.30">
        <route edges="E0 E2"/>
    </vehicle>
    <vehicle id="NS_car.11" type="car" depart="106.73">
        <route edges="-E3 -E0"/>
    </vehicle>
    <vehicle id="SN_car.10" type="car" depart="106.82">
        <route edges="-E2 E1"/>
    </vehicle>
    <vehicle id="EW_car.13" type="car" depart="107.58">
        <route edges="-E1 E3"/>
    </vehicle>
    <vehicle id="WE_car.14" type="car" depart="109.09">
        <route edges="E0 E1"/>
    </vehicle>
    <vehicle id="EW_car.14" type="car" depart="115.85">
        <route edges="-E1 E2"/>
    </vehicle>
    <vehicle id="NS_car.12" type="car" depart="116.44">
        <route edges="-E3 E2"/>
    </vehicle>
    <vehicle id="WE_car.15" type="car" depart="116.88">
        <route edges="E0 E3"/>
    </vehicle>
    <vehicle id="SN_car.11" type="car" depart="117.50">
        <route edges="-E2 E1"/>
    </vehicle>
    <vehicle id="EW_car.15" type="car" depart="124.13">
        <route edges="-E1 -E0"/>
    </vehicle>
    <vehicle id="WE_car.16" type="car" depart="124.67">
        <route edges="E0 E1"/>
    </vehicle>
    <vehicle id="NS_car.13" type="car" depart="126.14">
        <route edges="-E3 -E0"/>
    </vehicle>
    <vehicle id="SN_car.12" type="car" depart="128.18">
        <route edges="-E2 E3"/>
    </vehicle>
    <vehicle id="EW_car.16" type="car" depart="132.40">
        <route edges="-E1 -E0"/>
    </vehicle>
    <vehicle id="WE_car.17" type="car" depart="132.46">
        <route edges="E0 E1"/>
    </vehicle>
    <vehicle id="NS_car.14" type="car" depart="135.84">
        <route edges="-E3 -E0"/>
    </vehicle>
    <vehicle id="SN_car.13" type="car" depart="138.87">
        <route edges="-E2 -E0"/>
    </vehicle>
    <vehicle id="WE_car.18" type="car" depart="140.26">
        <route edges="E0 E1"/>
    </vehicle>
    <vehicle id="EW_car.17" type="car" depart="140.68">
        <route edges="-E1 E2"/>
    </vehicle>
    <vehicle id="NS_car.15" type="car" depart="145.55">
        <route edges="-E3 E2"/>
    </vehicle>
    <vehicle id="WE_car.19" type="car" depart="148.05">
        <route edges="E0 E1"/>
    </vehicle>
    <vehicle id="EW_car.18" type="car" depart="148.95">
        <route edges="-E1 -E0"/>
    </vehicle>
    <vehicle id="SN_car.14" type="car" depart="149.55">
        <route edges="-E2 E3"/>
    </vehicle>
    <vehicle id="NS_car.16" type="car" depart="155.25">
        <route edges="-E3 E1"/>
    </vehicle>
    <vehicle id="WE_car.20" type="car" depart="155.84">
        <route edges="E0 E1"/>
    </vehicle>
    <vehicle id="EW_car.19" type="car" depart="157.23">
        <route edges="-E1 -E0"/>
    </vehicle>
    <vehicle id="SN_car.15" type="car" depart="160.23">
        <route edges="-E2 E1"/>
    </vehicle>
    <vehicle id="WE_car.21" type="car" depart="163.63">
        <route edges="E0 E1"/>
    </vehicle>
    <vehicle id="NS_car.17" type="car" depart="164.95">
        <route edges="-E3 -E0"/>
    </vehicle>
    <vehicle id="EW_car.20" type="car" depart="165.50">
        <route edges="-E1 -E0"/>
    </vehicle>
    <vehicle id="SN_car.16" type="car" depart="170.91">
        <route edges="-E2 -E0"/>
    </vehicle>
    <vehicle id="WE_car.22" type="car" depart="171.42">
        <route edges="E0 E1"/>
    </vehicle>
    <vehicle id="EW_car.21" type="car" depart="173.78">
        <route edges="-E1 -E0"/>
    </vehicle>
    <vehicle id="NS_car.18" type="car" depart="174.65">
        <route edges="-E3 -E0"/>
    </vehicle>
    <vehicle id="WE_car.23" type="car" depart="179.22">
        <route edges="E0 E1"/>
    </vehicle>
    <vehicle id="SN_car.17" type="car" depart="181.59">
        <route edges="-E2 E1"/>
    </vehicle>
    <vehicle id="EW_car.22" type="car" depart="182.05">
        <route edges="-E1 -E0"/>
    </vehicle>
    <vehicle id="NS_car.19" type="car" depart="184.36">
        <route edges="-E3 E1"/>
    </vehicle>
    <vehicle id="WE_car.24" type="car" depart="187.01">
        <route edges="E0 E1"/>
    </vehicle>
    <vehicle id="EW_car.23" type="car" depart="190.33">
        <route edges="-E1 E2"/>
    </vehicle>
    <vehicle id="SN_car.18" type="car" depart="192.28">
        <route edges="-E2 E1"/>
    </vehicle>
    <vehicle id="NS_car.20" type="car" depart="194.06">
        <route edges="-E3 E1"/>
    </vehicle>
    <vehicle id="WE_car.25" type="car" depart="194.80">
        <route edges="E0 E1"/>
    </vehicle>
    <vehicle id="EW_car.24" type="car" depart="198.60">
        <route edges="-E1 -E0"/>
    </vehicle>
    <vehicle id="WE_car.26" type="car" depart="202.59">
        <route edges="E0 E3"/>
    </vehicle>
    <vehicle id="SN_car.19" type="car" depart="202.96">
        <route edges="-E2 -E0"/>
    </vehicle>
    <vehicle id="NS_car.21" type="car" depart="203.76">
        <route edges="-E3 E1"/>
    </vehicle>
    <vehicle id="EW_car.25" type="car" depart="206.88">
        <route edges="-E1 -E0"/>
    </vehicle>
    <vehicle id="WE_car.27" type="car" depart="210.38">
        <route edges="E0 E2"/>
    </vehicle>
    <vehicle id="NS_car.22" type="car" depart="213.47">
        <route edges="-E3 E1"/>
    </vehicle>
    <vehicle id="SN_car.20" type="car" depart="213.64">
        <route edges="-E2 E3"/>
    </vehicle>
    <vehicle id="EW_car.26" type="car" depart="215.15">
        <route edges="-E1 -E0"/>
    </vehicle>
    <vehicle id="WE_car.28" type="car" depart="218.18">
        <route edges="E0 E1"/>
    </vehicle>
    <vehicle id="NS_car.23" type="car" depart="223.17">
        <route edges="-E3 E1"/>
    </vehicle>
    <vehicle id="EW_car.27" type="car" depart="223.43">
        <route edges="-E1 -E0"/>
    </vehicle>
    <vehicle id="SN_car.21" type="car" depart="224.32">
        <route edges="-E2 E1"/>
    </vehicle>
    <vehicle id="WE_car.29" type="car" depart="225.97">
        <route edges="E0 E1"/>
    </vehicle>
    <vehicle id="EW_car.28" type="car" depart="231.70">
        <route edges="-E1 E3"/>
    </vehicle>
    <vehicle id="NS_car.24" type="car" depart="232.87">
        <route edges="-E3 -E0"/>
    </vehicle>
    <vehicle id="WE_car.30" type="car" depart="233.76">
        <route edges="E0 E1"/>
    </vehicle>
    <vehicle id="SN_car.22" type="car" depart="235.00">
        <route edges="-E2 E1"/>
    </vehicle>
    <vehicle id="EW_car.29" type="car" depart="239.98">
        <route edges="-E1 E2"/>
    </vehicle>
    <vehicle id="WE_car.31" type="car" depart="241.55">
        <route edges="E0 E1"/>
    </vehicle>
    <vehicle id="NS_car.25" type="car" depart="242.58">
        <route edges="-E3 E1"/>
    </vehicle>
    <vehicle id="SN_car.23" type="car" depart="245.69">
        <route edges="-E2 E1"/>
    </vehicle>
    <vehicle id="EW_car.30" type="car" depart="248.25">
        <route edges="-E1 E3"/>
    </vehicle>
    <vehicle id="WE_car.32" type="car" depart="249.34">
        <route edges="E0 E1"/>
    </vehicle>
    <vehicle id="NS_car.26" type="car" depart="252.28">
        <route edges="-E3 E1"/>
    </vehicle>
    <vehicle id="SN_car.24" type="car" depart="256.37">
        <route edges="-E2 -E0"/>
    </vehicle>
    <vehicle id="EW_car.31" type="car" depart="256.53">
        <route edges="-E1 E3"/>
    </vehicle>
    <vehicle id="WE_car.33" type="car" depart="257.14">
        <route edges="E0 E1"/>
    </vehicle>
    <vehicle id="NS_car.27" type="car" depart="261.98">
        <route edges="-E3 E2"/>
    </vehicle>
    <vehicle id="EW_car.32" type="car" depart="264.80">
        <route edges="-E1 -E0"/>
    </vehicle>
    <vehicle id="WE_car.34" type="car" depart="264.93">
        <route edges="E0 E1"/>
    </vehicle>
    <vehicle id="SN_car.25" type="car" depart="267.05">
        <route edges="-E2 -E0"/>
    </vehicle>
    <vehicle id="NS_car.28" type="car" depart="271.68">
        <route edges="-E3 E1"/>
    </vehicle>
    <vehicle id="WE_car.35" type="car" depart="272.72">
        <route edges="E0 E1"/>
    </vehicle>
    <vehicle id="EW_car.33" type="car" depart="273.08">
        <route edges="-E1 E3"/>
    </vehicle>
    <vehicle id="SN_car.26" type="car" depart="277.73">
        <route edges="-E2 E1"/>
    </vehicle>
    <vehicle id="WE_car.36" type="car" depart="280.51">
        <route edges="E0 E1"/>
    </vehicle>
    <vehicle id="EW_car.34" type="car" depart="281.35">
        <route edges="-E1 E3"/>
    </vehicle>
    <vehicle id="NS_car.29" type="car" depart="281.39">
        <route edges="-E3 E1"/>
    </vehicle>
    <vehicle id="WE_car.37" type="car" depart="288.30">
        <route edges="E0 E1"/>
    </vehicle>
    <vehicle id="SN_car.27" type="car" depart="288.41">
        <route edges="-E2 E1"/>
    </vehicle>
    <vehicle id="EW_car.35" type="car" depart="289.63">
        <route edges="-E1 E2"/>
    </vehicle>
    <vehicle id="NS_car.30" type="car" depart="291.09">
        <route edges="-E3 -E0"/>
    </vehicle>
    <vehicle id="WE_car.38" type="car" depart="296.10">
        <route edges="E0 E1"/>
    </vehicle>
    <vehicle id="EW_car.36" type="car" depart="297.90">
        <route edges="-E1 E2"/>
    </vehicle>
    <vehicle id="SN_car.28" type="car" depart="299.10">
        <route edges="-E2 E1"/>
    </vehicle>
    <vehicle id="NS_car.31" type="car" depart="300.79">
        <route edges="-E3 E1"/>
    </vehicle>
    <vehicle id="WE_car.39" type="car" depart="303.89">
        <route edges="E0 E1"/>
    </vehicle>
    <vehicle id="EW_car.37" type="car" depart="306.18">
        <route edges="-E1 E3"/>
    </vehicle>
    <vehicle id="SN_car.29" type="car" depart="309.78">
        <route edges="-E2 E1"/>
    </vehicle>
    <vehicle id="NS_car.32" type="car" depart="310.50">
        <route edges="-E3 E2"/>
    </vehicle>
    <vehicle id="WE_car.40" type="car" depart="311.68">
        <route edges="E0 E3"/>
    </vehicle>
    <vehicle id="EW_car.38" type="car" depart="314.45">
        <route edges="-E1 E2"/>
    </vehicle>
    <vehicle id="WE_car.41" type="car" depart="319.47">
        <route edges="E0 E1"/>
    </vehicle>
    <vehicle id="NS_car.33" type="car" depart="320.20">
        <route edges="-E3 E2"/>
    </vehicle>
    <vehicle id="SN_car.30" type="car" depart="320.46">
        <route edges="-E2 E1"/>
    </vehicle>
    <vehicle id="EW_car.39" type="car" depart="322.73">
        <route edges="-E1 -E0"/>
    </vehicle>
    <vehicle id="WE_car.42" type="car" depart="327.26">
        <route edges="E0 E3"/>
    </vehicle>
    <vehicle id="NS_car.34" type="car" depart="329.90">
        <route edges="-E3 -E0"/>
    </vehicle>
    <vehicle id="EW_car.40" type="car" depart="331.00">
        <route edges="-E1 -E0"/>
    </vehicle>
    <vehicle id="SN_car.31" type="car" depart="331.14">
        <route edges="-E2 E1"/>
    </vehicle>
    <vehicle id="WE_car.43" type="car" depart="335.06">
        <route edges="E0 E1"/>
    </vehicle>
    <vehicle id="EW_car.41" type="car" depart="339.28">
        <route edges="-E1 -E0"/>
    </vehicle>
    <vehicle id="NS_car.35" type="car" depart="339.61">
        <route edges="-E3 -E0"/>
    </vehicle>
    <vehicle id="SN_car.32" type="car" depart="341.82">
        <route edges="-E2 E1"/>
    </vehicle>
    <vehicle id="WE_car.44" type="car" depart="342.85">
        <route edges="E0 E3"/>
    </vehicle>
    <vehicle id="EW_car.42" type="car" depart="347.55">
        <route edges="-E1 -E0"/>
    </vehicle>
    <vehicle id="NS_car.36" type="car" depart="349.31">
        <route edges="-E3 E1"/>
    </vehicle>
    <vehicle id="WE_car.45" type="car" depart="350.64">
        <route edges="E0 E3"/>
    </vehicle>
    <vehicle id="SN_car.33" type="car" depart="352.51">
        <route edges="-E2 E1"/>
    </vehicle>
    <vehicle id="EW_car.43" type="car" depart="355.83">
        <route edges="-E1 -E0"/>
    </vehicle>
    <vehicle id="WE_car.46" type="car" depart="358.43">
        <route edges="E0 E2"/>
    </vehicle>
    <vehicle id="NS_car.37" type="car" depart="359.01">
        <route edges="-E3 E2"/>
    </vehicle>
    <vehicle id="SN_car.34" type="car" depart="363.19">
        <route edges="-E2 E1"/>
    </vehicle>
    <vehicle id="EW_car.44" type="car" depart="364.10">
        <route edges="-E1 E3"/>
    </vehicle>
    <vehicle id="WE_car.47" type="car" depart="366.22">
        <route edges="E0 E1"/>
    </vehicle>
    <vehicle id="NS_car.38" type="car" depart="368.71">
        <route edges="-E3 E2"/>
    </vehicle>
    <vehicle id="EW_car.45" type="car" depart="372.38">
        <route edges="-E1 E3"/>
    </vehicle>
    <vehicle id="SN_car.35" type="car" depart="373.87">
        <route edges="-E2 E1"/>
    </vehicle>
    <vehicle id="WE_car.48" type="car" depart="374.02">
        <route edges="E0 E2"/>
    </vehicle>
    <vehicle id="NS_car.39" type="car" depart="378.42">
        <route edges="-E3 E1"/>
    </vehicle>
    <vehicle id="EW_car.46" type="car" depart="380.65">
        <route edges="-E1 -E0"/>
    </vehicle>
    <vehicle id="WE_car.49" type="car" depart="381.81">
        <route edges="E0 E1"/>
    </vehicle>
    <vehicle id="SN_car.36" type="car" depart="384.55">
        <route edges="-E2 E1"/>
    </vehicle>
    <vehicle id="NS_car.40" type="car" depart="388.12">
        <route edges="-E3 E1"/>
    </vehicle>
    <vehicle id="EW_car.47" type="car" depart="388.93">
        <route edges="-E1 E3"/>
    </vehicle>
    <vehicle id="WE_car.50" type="car" depart="389.60">
        <route edges="E0 E1"/>
    </vehicle>
    <vehicle id="SN_car.37" type="car" depart="395.23">
        <route edges="-E2 E1"/>
    </vehicle>
    <vehicle id="EW_car.48" type="car" depart="397.20">
        <route edges="-E1 E3"/>
    </vehicle>
    <vehicle id="WE_car.51" type="car" depart="397.39">
        <route edges="E0 E1"/>
    </vehicle>
    <vehicle id="NS_car.41" type="car" depart="397.82">
        <route edges="-E3 E1"/>
    </vehicle>
    <vehicle id="WE_car.52" type="car" depart="405.18">
        <route edges="E0 E1"/>
    </vehicle>
    <vehicle id="EW_car.49" type="car" depart="405.48">
        <route edges="-E1 E3"/>
    </vehicle>
    <vehicle id="SN_car.38" type="car" depart="405.92">
        <route edges="-E2 -E0"/>
    </vehicle>
    <vehicle id="NS_car.42" type="car" depart="407.53">
        <route edges="-E3 -E0"/>
    </vehicle>
    <vehicle id="WE_car.53" type="car" depart="412.98">
        <route edges="E0 E1"/>
    </vehicle>
    <vehicle id="EW_car.50" type="car" depart="413.75">
        <route edges="-E1 -E0"/>
    </vehicle>
    <vehicle id="SN_car.39" type="car" depart="416.60">
        <route edges="-E2 -E0"/>
    </vehicle>
    <vehicle id="NS_car.43" type="car" depart="417.23">
        <route edges="-E3 E2"/>
    </vehicle>
    <vehicle id="WE_car.54" type="car" depart="420.77">
        <route edges="E0 E1"/>
    </vehicle>
    <vehicle id="EW_car.51" type="car" depart="422.03">
        <route edges="-E1 -E0"/>
    </vehicle>
    <vehicle id="NS_car.44" type="car" depart="426.93">
        <route edges="-E3 E2"/>
    </vehicle>
    <vehicle id="SN_car.40" type="car" depart="427.28">
        <route edges="-E2 E1"/>
    </vehicle>
    <vehicle id="WE_car.55" type="car" depart="428.56">
        <route edges="E0 E1"/>
    </vehicle>
    <vehicle id="EW_car.52" type="car" depart="430.30">
        <route edges="-E1 -E0"/>
    </vehicle>
    <vehicle id="WE_car.56" type="car" depart="436.35">
        <route edges="E0 E3"/>
    </vehicle>
    <vehicle id="NS_car.45" type="car" depart="436.64">
        <route edges="-E3 -E0"/>
    </vehicle>
    <vehicle id="SN_car.41" type="car" depart="437.96">
        <route edges="-E2 E3"/>
    </vehicle>
    <vehicle id="EW_car.53" type="car" depart="438.58">
        <route edges="-E1 E2"/>
    </vehicle>
    <vehicle id="WE_car.57" type="car" depart="444.14">
        <route edges="E0 E1"/>
    </vehicle>
    <vehicle id="NS_car.46" type="car" depart="446.34">
        <route edges="-E3 E1"/>
    </vehicle>
    <vehicle id="EW_car.54" type="car" depart="446.85">
        <route edges="-E1 -E0"/>
    </vehicle>
    <vehicle id="SN_car.42" type="car" depart="448.64">
        <route edges="-E2 E1"/>
    </vehicle>
    <vehicle id="WE_car.58" type="car" depart="451.94">
        <route edges="E0 E1"/>
    </vehicle>
    <vehicle id="EW_car.55" type="car" depart="455.13">
        <route edges="-E1 E3"/>
    </vehicle>
    <vehicle id="NS_car.47" type="car" depart="456.04">
        <route edges="-E3 E1"/>
    </vehicle>
    <vehicle id="SN_car.43" type="car" depart="459.33">
        <route edges="-E2 E1"/>
    </vehicle>
    <vehicle id="WE_car.59" type="car" depart="459.73">
        <route edges="E0 E1"/>
    </vehicle>
    <vehicle id="EW_car.56" type="car" depart="463.40">
        <route edges="-E1 -E0"/>
    </vehicle>
    <vehicle id="NS_car.48" type="car" depart="465.74">
        <route edges="-E3 -E0"/>
    </vehicle>
    <vehicle id="WE_car.60" type="car" depart="467.52">
        <route edges="E0 E1"/>
    </vehicle>
    <vehicle id="SN_car.44" type="car" depart="470.01">
        <route edges="-E2 -E0"/>
    </vehicle>
    <vehicle id="EW_car.57" type="car" depart="471.68">
        <route edges="-E1 -E0"/>
    </vehicle>
    <vehicle id="WE_car.61" type="car" depart="475.31">
        <route edges="E0 E1"/>
    </vehicle>
    <vehicle id="NS_car.49" type="car" depart="475.45">
        <route edges="-E3 E1"/>
    </vehicle>
    <vehicle id="EW_car.58" type="car" depart="479.95">
        <route edges="-E1 E2"/>
    </vehicle>
    <vehicle id="SN_car.45" type="car" depart="480.69">
        <route edges="-E2 -E0"/>
    </vehicle>
    <vehicle id="WE_car.62" type="car" depart="483.10">
        <route edges="E0 E3"/>
    </vehicle>
    <vehicle id="NS_car.50" type="car" depart="485.15">
        <route edges="-E3 E1"/>
    </vehicle>
    <vehicle id="EW_car.59" type="car" depart="488.23">
        <route edges="-E1 -E0"/>
    </vehicle>
    <vehicle id="WE_car.63" type="car" depart="490.90">
        <route edges="E0 E1"/>
    </vehicle>
    <vehicle id="SN_car.46" type="car" depart="491.37">
        <route edges="-E2 -E0"/>
    </vehicle>
    <vehicle id="NS_car.51" type="car" depart="494.85">
        <route edges="-E3 E1"/>
    </vehicle>
    <vehicle id="EW_car.60" type="car" depart="496.50">
        <route edges="-E1 -E0"/>
    </vehicle>
    <vehicle id="WE_car.64" type="car" depart="498.69">
        <route edges="E0 E1"/>
    </vehicle>
    <vehicle id="SN_car.47" type="car" depart="502.05">
        <route edges="-E2 E3"/>
    </vehicle>
    <vehicle id="NS_car.52" type="car" depart="504.56">
        <route edges="-E3 E2"/>
    </vehicle>
    <vehicle id="EW_car.61" type="car" depart="504.78">
        <route edges="-E1 -E0"/>
    </vehicle>
    <vehicle id="WE_car.65" type="car" depart="506.48">
        <route edges="E0 E3"/>
    </vehicle>
    <vehicle id="SN_car.48" type="car" depart="512.74">
        <route edges="-E2 E1"/>
    </vehicle>
    <vehicle id="EW_car.62" type="car" depart="513.05">
        <route edges="-E1 -E0"/>
    </vehicle>
    <vehicle id="NS_car.53" type="car" depart="514.26">
        <route edges="-E3 E1"/>
    </vehicle>
    <vehicle id="WE_car.66" type="car" depart="514.27">
        <route edges="E0 E1"/>
    </vehicle>
    <vehicle id="EW_car.63" type="car" depart="521.33">
        <route edges="-E1 -E0"/>
    </vehicle>
    <vehicle id="WE_car.67" type="car" depart="522.06">
        <route edges="E0 E1"/>
    </vehicle>
    <vehicle id="SN_car.49" type="car" depart="523.42">
        <route edges="-E2 E1"/>
    </vehicle>
    <vehicle id="NS_car.54" type="car" depart="523.96">
        <route edges="-E3 E2"/>
    </vehicle>
    <vehicle id="EW_car.64" type="car" depart="529.60">
        <route edges="-E1 -E0"/>
    </vehicle>
    <vehicle id="WE_car.68" type="car" depart="529.86">
        <route edges="E0 E3"/>
    </vehicle>
    <vehicle id="NS_car.55" type="car" depart="533.67">
        <route edges="-E3 E1"/>
    </vehicle>
    <vehicle id="SN_car.50" type="car" depart="534.10">
        <route edges="-E2 -E0"/>
    </vehicle>
    <vehicle id="WE_car.69" type="car" depart="537.65">
        <route edges="E0 E1"/>
    </vehicle>
    <vehicle id="EW_car.65" type="car" depart="537.88">
        <route edges="-E1 E2"/>
    </vehicle>
    <vehicle id="NS_car.56" type="car" depart="543.37">
        <route edges="-E3 -E0"/>
    </vehicle>
    <vehicle id="SN_car.51" type="car" depart="544.78">
        <route edges="-E2 -E0"/>
    </vehicle>
    <vehicle id="WE_car.70" type="car" depart="545.44">
        <route edges="E0 E1"/>
    </vehicle>
    <vehicle id="EW_car.66" type="car" depart="546.15">
        <route edges="-E1 E3"/>
    </vehicle>
    <vehicle id="NS_car.57" type="car" depart="553.07">
        <route edges="-E3 -E0"/>
    </vehicle>
    <vehicle id="WE_car.71" type="car" depart="553.23">
        <route edges="E0 E1"/>
    </vehicle>
    <vehicle id="EW_car.67" type="car" depart="554.43">
        <route edges="-E1 -E0"/>
    </vehicle>
    <vehicle id="SN_car.52" type="car" depart="555.46">
        <route edges="-E2 -E0"/>
    </vehicle>
    <vehicle id="WE_car.72" type="car" depart="561.02">
        <route edges="E0 E1"/>
    </vehicle>
    <vehicle id="EW_car.68" type="car" depart="562.70">
        <route edges="-E1 E2"/>
    </vehicle>
    <vehicle id="NS_car.58" type="car" depart="562.77">
        <route edges="-E3 E1"/>
    </vehicle>
    <vehicle id="SN_car.53" type="car" depart="566.15">
        <route edges="-E2 E1"/>
    </vehicle>
    <vehicle id="WE_car.73" type="car" depart="568.82">
        <route edges="E0 E1"/>
    </vehicle>
    <vehicle id="EW_car.69" type="car" depart="570.98">
        <route edges="-E1 E3"/>
    </vehicle>
    <vehicle id="NS_car.59" type="car" depart="572.48">
        <route edges="-E3 E1"/>
    </vehicle>
    <vehicle id="WE_car.74" type="car" depart="576.61">
        <route edges="E0 E1"/>
    </vehicle>
    <vehicle id="SN_car.54" type="car" depart="576.83">
        <route edges="-E2 E1"/>
    </vehicle>
    <vehicle id="EW_car.70" type="car" depart="579.25">
        <route edges="-E1 -E0"/>
    </vehicle>
    <vehicle id="NS_car.60" type="car" depart="582.18">
        <route edges="-E3 E2"/>
    </vehicle>
    <vehicle id="WE_car.75" type="car" depart="584.40">
        <route edges="E0 E1"/>
    </vehicle>
    <vehicle id="SN_car.55" type="car" depart="587.51">
        <route edges="-E2 -E0"/>
    </vehicle>
    <vehicle id="EW_car.71" type="car" depart="587.53">
        <route edges="-E1 -E0"/>
    </vehicle>
    <vehicle id="NS_car.61" type="car" depart="591.88">
        <route edges="-E3 E1"/>
    </vehicle>
    <vehicle id="WE_car.76" type="car" depart="592.19">
        <route edges="E0 E1"/>
    </vehicle>
    <vehicle id="EW_car.72" type="car" depart="595.80">
        <route edges="-E1 -E0"/>
    </vehicle>
    <vehicle id="SN_car.56" type="car" depart="598.19">
        <route edges="-E2 E3"/>
    </vehicle>
    <vehicle id="WE_car.77" type="car" depart="599.98">
        <route edges="E0 E2"/>
    </vehicle>
    <vehicle id="NS_car.62" type="car" depart="601.59">
        <route edges="-E3 E1"/>
    </vehicle>
    <vehicle id="EW_car.73" type="car" depart="604.08">
        <route edges="-E1 -E0"/>
    </vehicle>
    <vehicle id="WE_car.78" type="car" depart="607.78">
        <route edges="E0 E3"/>
    </vehicle>
    <vehicle id="SN_car.57" type="car" depart="608.87">
        <route edges="-E2 E1"/>
    </vehicle>
    <vehicle id="NS_car.63" type="car" depart="611.29">
        <route edges="-E3 -E0"/>
    </vehicle>
    <vehicle id="EW_car.74" type="car" depart="612.35">
        <route edges="-E1 -E0"/>
    </vehicle>
    <vehicle id="WE_car.79" type="car" depart="615.57">
        <route edges="E0 E3"/>
    </vehicle>
    <vehicle id="SN_car.58" type="car" depart="619.56">
        <route edges="-E2 E1"/>
    </vehicle>
    <vehicle id="EW_car.75" type="car" depart="620.63">
        <route edges="-E1 E3"/>
    </vehicle>
    <vehicle id="NS_car.64" type="car" depart="620.99">
        <route edges="-E3 E1"/>
    </vehicle>
    <vehicle id="WE_car.80" type="car" depart="623.36">
        <route edges="E0 E1"/>
    </vehicle>
    <vehicle id="EW_car.76" type="car" depart="628.90">
        <route edges="-E1 E2"/>
    </vehicle>
    <vehicle id="SN_car.59" type="car" depart="630.24">
        <route edges="-E2 E1"/>
    </vehicle>
    <vehicle id="NS_car.65" type="car" depart="630.70">
        <route edges="-E3 E1"/>
    </vehicle>