<?xml version="1.0" encoding="UTF-8"?>

<!-- generated on 2026-05-23 15:28:35 by Eclipse SUMO jtrrouter Version 1.23.1
<jtrrouterConfiguration xmlns:xsi="http://www.w3.org/2001/XMLSchema-instance" xsi:noNamespaceSchemaLocation="http://sumo.dlr.de/xsd/jtrrouterConfiguration.xsd">

    <input>
        <net-file value="demo_20.net.xml"/>
        <route-files value="demo_20.flow.xml"/>
        <turn-ratio-files value="demo_20.turn.xml"/>
    </input>

    <output>
        <output-file value="demo_20.rou.xml"/>
    </output>

    <time>
        <begin value="0"/>
        <end value="3600"/>
    </time>

</jtrrouterConfiguration>
-->

<routes xmlns:xsi="http://www.w3.org/2001/XMLSchema-instance" xsi:noNamespaceSchemaLocation="http://sumo.dlr.de/xsd/routes_file.xsd">
    <vType id="car" maxSpeed="37.00" vClass="passenger"/>
    <vehicle id="EW_car.0" type="car" depart="0.00">
        <route edges="-E1 -E1.42 E3"/>
    </vehicle>
    <vehicle id="NS_car.0" type="car" depart="0.00">
        <route edges="-E3 -E0"/>
    </vehicle>
    <vehicle id="SN_car.0" type="car" depart="0.00">
        <route edges="-E2 -E2.41 E1"/>
    </vehicle>
    <vehicle id="WE_car.0" type="car" depart="0.00">
        <route edges="E0 E0.40 E3"/>
    </vehicle>
    <vehicle id="EW_car.1" type="car" depart="6.25">
        <route edges="-E1 -E1.42 E2"/>
    </vehicle>
    <vehicle id="NS_car.1" type="car" depart="9.76">
        <route edges="-E3 E2"/>
    </vehicle>
    <vehicle id="EW_car.2" type="car" depart="12.50">
        <route edges="-E1 -E1.42 E2"/>
    </vehicle>
    <vehicle id="WE_car.1" type="car" depart="14.34">
        <route edges="E0 E0.40 E2"/>
    </vehicle>
    <vehicle id="EW_car.3" type="car" depart="18.75">
        <route edges="-E1 -E1.42 -E0"/>
    </vehicle>
    <vehicle id="NS_car.2" type="car" depart="19.51">
        <route edges="-E3 -E0"/>
    </vehicle>
    <vehicle id="SN_car.1" type="car" depart="19.67">
        <route edges="-E2 -E2.41 E1"/>
    </vehicle>
    <vehicle id="EW_car.4" type="car" depart="25.00">
        <route edges="-E1 -E1.42 -E0"/>
    </vehicle>
    <vehicle id="WE_car.2" type="car" depart="28.68">
        <route edges="E0 E0.40 E1"/>
    </vehicle>
    <vehicle id="NS_car.3" type="car" depart="29.27">
        <route edges="-E3 E2"/>
    </vehicle>
    <vehicle id="EW_car.5" type="car" depart="31.25">
        <route edges="-E1 -E1.42 E3"/>
    </vehicle>
    <vehicle id="EW_car.6" type="car" depart="37.50">
        <route edges="-E1 -E1.42 -E0"/>
    </vehicle>
    <vehicle id="NS_car.4" type="car" depart="39.02">
        <route edges="-E3 E1"/>
    </vehicle>
    <vehicle id="SN_car.2" type="car" depart="39.34">
        <route edges="-E2 -E2.41 -E0"/>
    </vehicle>
    <vehicle id="WE_car.3" type="car" depart="43.03">
        <route edges="E0 E0.40 E3"/>
    </vehicle>
    <vehicle id="EW_car.7" type="car" depart="43.75">
        <route edges="-E1 -E1.42 E3"/>
    </vehicle>
    <vehicle id="NS_car.5" type="car" depart="48.78">
        <route edges="-E3 -E0"/>
    </vehicle>
    <vehicle id="EW_car.8" type="car" depart="50.00">
        <route edges="-E1 -E1.42 -E0"/>
    </vehicle>
    <vehicle id="EW_car.9" type="car" depart="56.25">
        <route edges="-E1 -E1.42 -E0"/>
    </vehicle>
    <vehicle id="WE_car.4" type="car" depart="57.37">
        <route edges="E0 E0.40 E3"/>
    </vehicle>
    <vehicle id="NS_car.6" type="car" depart="58.54">
        <route edges="-E3 -E0"/>
    </vehicle>
    <vehicle id="SN_car.3" type="car" depart="59.02">
        <route edges="-E2 -E2.41 -E0"/>
    </vehicle>
    <vehicle id="EW_car.10" type="car" depart="62.50">
        <route edges="-E1 -E1.42 -E0"/>
    </vehicle>
    <vehicle id="NS_car.7" type="car" depart="68.29">
        <route edges="-E3 E2"/>
    </vehicle>
    <vehicle id="EW_car.11" type="car" depart="68.75">
        <route edges="-E1 -E1.42 E2"/>
    </vehicle>
    <vehicle id="WE_car.5" type="car" depart="71.71">
        <route edges="E0 E0.40 E2"/>
    </vehicle>
    <vehicle id="EW_car.12" type="car" depart="75.00">
        <route edges="-E1 -E1.42 E3"/>
    </vehicle>
    <vehicle id="NS_car.8" type="car" depart="78.05">
        <route edges="-E3 E2"/>
    </vehicle>
    <vehicle id="SN_car.4" type="car" depart="78.69">
        <route edges="-E2 -E2.41 E1"/>
    </vehicle>
    <vehicle id="EW_car.13" type="car" depart="81.25">
        <route edges="-E1 -E1.42 -E0"/>
    </vehicle>
    <vehicle id="WE_car.6" type="car" depart="86.05">
        <route edges="E0 E0.40 E1"/>
    </vehicle>
    <vehicle id="EW_car.14" type="car" depart="87.50">
        <route edges="-E1 -E1.42 -E0"/>
    </vehicle>
    <vehicle id="NS_car.9" type="car" depart="87.80">
        <route edges="-E3 -E0"/>
    </vehicle>
    <vehicle id="EW_car.15" type="car" depart="93.75">
        <route edges="-E1 -E1.42 E2"/>
    </vehicle>
    <vehicle id="NS_car.10" type="car" depart="97.56">
        <route edges="-E3 E2"/>
    </vehicle>
    <vehicle id="SN_car.5" type="car" depart="98.36">
        <route edges="-E2 -E2.41 -E0"/>
    </vehicle>
    <vehicle id="EW_car.16" type="car" depart="100.00">
        <route edges="-E1 -E1.42 -E0"/>
    </vehicle>
    <vehicle id="WE_car.7" type="car" depart="100.39">
        <route edges="E0 E0.40 E1"/>
    </vehicle>
    <vehicle id="EW_car.17" type="car" depart="106.25">
        <route edges="-E1 -E1.42 -E0"/>
    </vehicle>
    <vehicle id="NS_car.11" type="car" depart="107.32">
        <route edges="-E3 -E0"/>
    </vehicle>
    <vehicle id="EW_car.18" type="car" depart="112.50">
        <route edges="-E1 -E1.42 -E0"/>
    </vehicle>
    <vehicle id="WE_car.8" type="car" depart="114.74">
        <route edges="E0 E0.40 E1"/>
    </vehicle>
    <vehicle id="NS_car.12" type="car" depart="117.07">
        <route edges="-E3 -E0"/>
    </vehicle>
    <vehicle id="SN_car.6" type="car" depart="118.03">
        <route edges="-E2 -E2.41 E3"/>
    </vehicle>
    <vehicle id="EW_car.19" type="car" depart="118.75">
        <route edges="-E1 -E1.42 E2"/>
    </vehicle>
    <vehicle id="EW_car.20" type="car" depart="125.00">
        <route edges="-E1 -E1.42 E2"/>
    </vehicle>
    <vehicle id="NS_car.13" type="car" depart="126.83">
        <route edges="-E3 E2"/>
    </vehicle>
    <vehicle id="WE_car.9" type="car" depart="129.08">
        <route edges="E0 E0.40 E2"/>
    </vehicle>
    <vehicle id="EW_car.21" type="car" depart="131.25">
        <route edges="-E1 -E1.42 E3"/>
    </vehicle>
    <vehicle id="NS_car.14" type="car" depart="136.58">
        <route edges="-E3 -E0"/>
    </vehicle>
    <vehicle id="EW_car.22" type="car" depart="137.50">
        <route edges="-E1 -E1.42 -E0"/>
    </vehicle>
    <vehicle id="SN_car.7" type="car" depart="137.70">
        <route edges="-E2 -E2.41 E3"/>
    </vehicle>
    <vehicle id="WE_car.10" type="car" depart="143.42">
        <route edges="E0 E0.40 E2"/>
    </vehicle>
    <vehicle id="EW_car.23" type="car" depart="143.75">
        <route edges="-E1 -E1.42 E3"/>
    </vehicle>
    <vehicle id="NS_car.15" type="car" depart="146.34">
        <route edges="-E3 E1"/>
    </vehicle>
    <vehicle id="EW_car.24" type="car" depart="150.00">
        <route edges="-E1 -E1.42 E2"/>
    </vehicle>
    <vehicle id="NS_car.16" type="car" depart="156.10">
        <route edges="-E3 E2"/>
    </vehicle>
    <vehicle id="EW_car.25" type="car" depart="156.25">
        <route edges="-E1 -E1.42 E2"/>
    </vehicle>
    <vehicle id="SN_car.8" type="car" depart="157.38">
        <route edges="-E2 -E2.41 E3"/>
    </vehicle>
    <vehicle id="WE_car.11" type="car" depart="157.76">
        <route edges="E0 E0.40 E2"/>
    </vehicle>
    <vehicle id="EW_car.26" type="car" depart="162.50">
        <route edges="-E1 -E1.42 E3"/>
    </vehicle>
    <vehicle id="NS_car.17" type="car" depart="165.85">
        <route edges="-E3 -E0"/>
    </vehicle>
    <vehicle id="EW_car.27" type="car" depart="168.75">
        <route edges="-E1 -E1.42 -E0"/>
    </vehicle>
    <vehicle id="WE_car.12" type="car" depart="172.10">
        <route edges="E0 E0.40 E1"/>
    </vehicle>
    <vehicle id="EW_car.28" type="car" depart="175.00">
        <route edges="-E1 -E1.42 -E0"/>
    </vehicle>
    <vehicle id="NS_car.18" type="car" depart="175.61">
        <route edges="-E3 E1"/>
    </vehicle>
    <vehicle id="SN_car.9" type="car" depart="177.05">
        <route edges="-E2 -E2.41 E1"/>
    </vehicle>
    <vehicle id="EW_car.29" type="car" depart="181.25">
        <route edges="-E1 -E1.42 E3"/>
    </vehicle>
    <vehicle id="NS_car.19" type="car" depart="185.36">
        <route edges="-E3 E2"/>
    </vehicle>
    <vehicle id="WE_car.13" type="car" depart="186.45">
        <route edges="E0 E0.40 E3"/>
    </vehicle>
    <vehicle id="EW_car.30" type="car" depart="187.50">
        <route edges="-E1 -E1.42 E2"/>
    </vehicle>
    <vehicle id="EW_car.31" type="car" depart="193.75">
        <route edges="-E1 -E1.42 E2"/>
    </vehicle>
    <vehicle id="NS_car.20" type="car" depart="195.12">
        <route edges="-E3 -E0"/>
    </vehicle>
    <vehicle id="SN_car.10" type="car" depart="196.72">
        <route edges="-E2 -E2.41 E3"/>
    </vehicle>
    <vehicle id="EW_car.32" type="car" depart="200.00">
        <route edges="-E1 -E1.42 E2"/>
    </vehicle>
    <vehicle id="WE_car.14" type="car" depart="200.79">
        <route edges="E0 E0.40 E3"/>
    </vehicle>
    <vehicle id="NS_car.21" type="car" depart="204.88">
        <route edges="-E3 E2"/>
    </vehicle>
    <vehicle id="EW_car.33" type="car" depart="206.25">
        <route edges="-E1 -E1.42 E3"/>
    </vehicle>
    <vehicle id="EW_car.34" type="car" depart="212.50">
        <route edges="-E1 -E1.42 -E0"/>
    </vehicle>
    <vehicle id="NS_car.22" type="car" depart="214.63">
        <route edges="-E3 E2"/>
    </vehicle>
    <vehicle id="WE_car.15" type="car" depart="215.13">
        <route edges="E0 E0.40 E2"/>
    </vehicle>
    <vehicle id="SN_car.11" type="car" depart="216.39">
        <route edges="-E2 -E2.41 -E0"/>
    </vehicle>
    <vehicle id="EW_car.35" type="car" depart="218.75">
        <route edges="-E1 -E1.42 E3"/>
    </vehicle>
    <vehicle id="NS_car.23" type="car" depart="224.39">
        <route edges="-E3 E1"/>
    </vehicle>
    <vehicle id="EW_car.36" type="car" depart="225.00">
        <route edges="-E1 -E1.42 -E0"/>
    </vehicle>
    <vehicle id="WE_car.16" type="car" depart="229.47">
        <route edges="E0 E0.40 E3"/>
    </vehicle>
    <vehicle id="EW_car.37" type="car" depart="231.25">
        <route edges="-E1 -E1.42 E2"/>
    </vehicle>
    <vehicle id="NS_car.24" type="car" depart="234.14">
        <route edges="-E3 E2"/>
    </vehicle>
    <vehicle id="SN_car.12" type="car" depart="236.06">
        <route edges="-E2 -E2.41 -E0"/>
    </vehicle>
    <vehicle id="EW_car.38" type="car" depart="237.50">
        <route edges="-E1 -E1.42 E3"/>
    </vehicle>
    <vehicle id="EW_car.39" type="car" depart="243.75">
        <route edges="-E1 -E1.42 E3"/>
    </vehicle>
    <vehicle id="WE_car.17" type="car" depart="243.81">
        <route edges="E0 E0.40 E3"/>
    </vehicle>
    <vehicle id="NS_car.25" type="car" depart="243.90">
        <route edges="-E3 E2"/>
    </vehicle>
    <vehicle id="EW_car.40" type="car" depart="250.00">
        <route edges="-E1 -E1.42 E3"/>
    </vehicle>
    <vehicle id="NS_car.26" type="car" depart="253.66">
        <route edges="-E3 E1"/>
    </vehicle>
    <vehicle id="SN_car.13" type="car" depart="255.74">
        <route edges="-E2 -E2.41 -E0"/>
    </vehicle>
    <vehicle id="EW_car.41" type="car" depart="256.25">
        <route edges="-E1 -E1.42 -E0"/>
    </vehicle>
    <vehicle id="WE_car.18" type="car" depart="258.16">
        <route edges="E0 E0.40 E2"/>
    </vehicle>
    <vehicle id="EW_car.42" type="car" depart="262.50">
        <route edges="-E1 -E1.42 E3"/>
    </vehicle>
    <vehicle id="NS_car.27" type="car" depart="263.41">
        <route edges="-E3 -E0"/>
    </vehicle>
    <vehicle id="EW_car.43" type="car" depart="268.75">
        <route edges="-E1 -E1.42 -E0"/>
    </vehicle>
    <vehicle id="WE_car.19" type="car" depart="272.50">
        <route edges="E0 E0.40 E1"/>
    </vehicle>
    <vehicle id="NS_car.28" type="car" depart="273.17">
        <route edges="-E3 -E0"/>
    </vehicle>
    <vehicle id="EW_car.44" type="car" depart="275.00">
        <route edges="-E1 -E1.42 -E0"/>
    </vehicle>
    <vehicle id="SN_car.14" type="car" depart="275.41">
        <route edges="-E2 -E2.41 E3"/>
    </vehicle>
    <vehicle id="EW_car.45" type="car" depart="281.25">
        <route edges="-E1 -E1.42 -E0"/>
    </vehicle>
    <vehicle id="NS_car.29" type="car" depart="282.92">
        <route edges="-E3 E2"/>
    </vehicle>
    <vehicle id="WE_car.20" type="car" depart="286.84">
        <route edges="E0 E0.40 E1"/>
    </vehicle>
    <vehicle id="EW_car.46" type="car" depart="287.50">
        <route edges="-E1 -E1.42 E3"/>
    </vehicle>
    <vehicle id="NS_car.30" type="car" depart="292.68">
        <route edges="-E3 -E0"/>
    </vehicle>
    <vehicle id="EW_car.47" type="car" depart="293.75">
        <route edges="-E1 -E1.42 E2"/>
    </vehicle>
    <vehicle id="SN_car.15" type="car" depart="295.08">
        <route edges="-E2 -E2.41 E1"/>
    </vehicle>
    <vehicle id="EW_car.48" type="car" depart="300.00">
        <route edges="-E1 -E1.42 E2"/>
    </vehicle>
    <vehicle id="WE_car.21" type="car" depart="301.18">
        <route edges="E0 E0.40 E3"/>
    </vehicle>
    <vehicle id="NS_car.31" type="car" depart="302.44">
        <route edges="-E3 E2"/>
    </vehicle>
    <vehicle id="EW_car.49" type="car" depart="306.25">
        <route edges="-E1 -E1.42 -E0"/>
    </vehicle>
    <vehicle id="NS_car.32" type="car" depart="312.19">
        <route edges="-E3 E1"/>
    </vehicle>
    <vehicle id="EW_car.50" type="car" depart="312.50">
        <route edges="-E1 -E1.42 E2"/>
    </vehicle>
    <vehicle id="SN_car.16" type="car" depart="314.75">
        <route edges="-E2 -E2.41 E1"/>
    </vehicle>
    <vehicle id="WE_car.22" type="car" depart="315.52">
        <route edges="E0 E0.40 E3"/>
    </vehicle>
    <vehicle id="EW_car.51" type="car" depart="318.75">
        <route edges="-E1 -E1.42 -E0"/>
    </vehicle>
    <vehicle id="NS_car.33" type="car" depart="321.95">
        <route edges="-E3 E2"/>
    </vehicle>
    <vehicle id="EW_car.52" type="car" depart="325.00">
        <route edges="-E1 -E1.42 -E0"/>
    </vehicle>
    <vehicle id="WE_car.23" type="car" depart="329.87">
        <route edges="E0 E0.40 E1"/>
    </vehicle>
    <vehicle id="EW_car.53" type="car" depart="331.25">
        <route edges="-E1 -E1.42 -E0"/>
    </vehicle>
    <vehicle id="NS_car.34" type="car" depart="331.70">
        <route edges="-E3 E1"/>
    </vehicle>
    <vehicle id="SN_car.17" type="car" depart="334.42">
        <route edges="-E2 -E2.41 E3"/>
    </vehicle>
    <vehicle id="EW_car.54" type="car" depart="337.50">
        <route edges="-E1 -E1.42 E3"/>
    </vehicle>
    <vehicle id="NS_car.35" type="car" depart="341.46">
        <route edges="-E3 -E0"/>
    </vehicle>
    <vehicle id="EW_car.55" type="car" depart="343.75">
        <route edges="-E1 -E1.42 -E0"/>
    </vehicle>
    <vehicle id="WE_car.24" type="car" depart="344.21">
        <route edges="E0 E0.40 E2"/>
    </vehicle>
    <vehicle id="EW_car.56" type="car" depart="350.00">
        <route edges="-E1 -E1.42 E3"/>
    </vehicle>
    <vehicle id="NS_car.36" type="car" depart="351.22">
        <route edges="-E3 E2"/>
    </vehicle>
    <vehicle id="SN_car.18" type="car" depart="354.10">
        <route edges="-E2 -E2.41 E3"/>
    </vehicle>
    <vehicle id="EW_car.57" type="car" depart="356.25">
        <route edges="-E1 -E1.42 -E0"/>
    </vehicle>
    <vehicle id="WE_car.25" type="car" depart="358.55">
        <route edges="E0 E0.40 E2"/>
    </vehicle>
    <vehicle id="NS_car.37" type="car" depart="360.97">
        <route edges="-E3 -E0"/>
    </vehicle>
    <vehicle id="EW_car.58" type="car" depart="362.50">
        <route edges="-E1 -E1.42 -E0"/>
    </vehicle>
    <vehicle id="EW_car.59" type="car" depart="368.75">
        <route edges="-E1 -E1.42 -E0"/>
    </vehicle>
    <vehicle id="NS_car.38" type="car" depart="370.73">
        <route edges="-E3 E1"/>
    </vehicle>
    <vehicle id="WE_car.26" type="car" depart="372.89">
        <route edges="E0 E0.40 E1"/>
    </vehicle>
    <vehicle id="SN_car.19" type="car" depart="373.77">
        <route edges="-E2 -E2.41 E1"/>
    </vehicle>
    <vehicle id="EW_car.60" type="car" depart="375.00">
        <route edges="-E1 -E1.42 E2"/>
    </vehicle>
    <vehicle id="NS_car.39" type="car" depart="380.48">
        <route edges="-E3 E1"/>
    </vehicle>
    <vehicle id="EW_car.61" type="car" depart="381.25">
        <route edges="-E1 -E1.42 E3"/>
    </vehicle>
    <vehicle id="WE_car.27" type="car" depart="387.23">
        <route edges="E0 E0.40 E1"/>
    </vehicle>
    <vehicle id="EW_car.62" type="car" depart="387.50">
        <route edges="-E1 -E1.42 E3"/>
    </vehicle>
    <vehicle id="NS_car.40" type="car" depart="390.24">
        <route edges="-E3 -E0"/>
    </vehicle>
    <vehicle id="SN_car.20" type="car" depart="393.44">
        <route edges="-E2 -E2.41 -E0"/>
    </vehicle>
    <vehicle id="EW_car.63" type="car" depart="393.75">
        <route edges="-E1 -E1.42 E2"/>
    </vehicle>
    <vehicle id="NS_car.41" type="car" depart="400.00">
        <route edges="-E3 -E0"/>
    </vehicle>
    <vehicle id="EW_car.64" type="car" depart="400.00">
        <route edges="-E1 -E1.42 E3"/>
    </vehicle>
    <vehicle id="WE_car.28" type="car" depart="401.58">
        <route edges="E0 E0.40 E1"/>
    </vehicle>
    <vehicle id="EW_car.65" type="car" depart="406.25">
        <route edges="-E1 -E1.42 E3"/>
    </vehicle>
    <vehicle id="NS_car.42" type="car" depart="409.75">
        <route edges="-E3 -E0"/>
    </vehicle>
    <vehicle id="EW_car.66" type="car" depart="412.50">
        <route edges="-E1 -E1.42 E3"/>
    </vehicle>
    <vehicle id="SN_car.21" type="car" depart="413.11">
        <route edges="-E2 -E2.41 E3"/>
    </vehicle>
    <vehicle id="WE_car.29" type="car" depart="415.92">
        <route edges="E0 E0.40 E1"/>
    </vehicle>
    <vehicle id="EW_car.67" type="car" depart="418.75">
        <route edges="-E1 -E1.42 E2"/>
    </vehicle>
    <vehicle id="NS_car.43" type="car" depart="419.51">
        <route edges="-E3 E1"/>
    </vehicle>
    <vehicle id="EW_car.68" type="car" depart="425.00">
        <route edges="-E1 -E1.42 E2"/>
    </vehicle>
    <vehicle id="NS_car.44" type="car" depart="429.26">
        <route edges="-E3 E2"/>
    </vehicle>
    <vehicle id="WE_car.30" type="car" depart="430.26">
        <route edges="E0 E0.40 E3"/>
    </vehicle>
    <vehicle id="EW_car.69" type="car" depart="431.25">
        <route edges="-E1 -E1.42 E3"/>
    </vehicle>
    <vehicle id="SN_car.22" type="car" depart="432.78">
        <route edges="-E2 -E2.41 E1"/>
    </vehicle>
    <vehicle id="EW_car.70" type="car" depart="437.50">
        <route edges="-E1 -E1.42 E3"/>
    </vehicle>
    <vehicle id="NS_car.45" type="car" depart="439.02">
        <route edges="-E3 E2"/>
    </vehicle>
    <vehicle id="EW_car.71" type="car" depart="443.75">
        <route edges="-E1 -E1.42 E2"/>
    </vehicle>
    <vehicle id="WE_car.31" type="car" depart="444.60">
        <route edges="E0 E0.40 E3"/>
    </vehicle>
    <vehicle id="NS_car.46" type="car" depart="448.78">
        <route edges="-E3 E2"/>
    </vehicle>
    <vehicle id="EW_car.72" type="car" depart="450.00">
        <route edges="-E1 -E1.42 E2"/>
    </vehicle>
    <vehicle id="SN_car.23" type="car" depart="452.46">
        <route edges="-E2 -E2.41 E1"/>
    </vehicle>
    <vehicle id="EW_car.73" type="car" depart="456.25">
        <route edges="-E1 -E1.42 E3"/>
    </vehicle>
    <vehicle id="NS_car.47" type="car" depart="458.53">
        <route edges="-E3 E1"/>
    </vehicle>
    <vehicle id="WE_car.32" type="car" depart="458.94">
        <route edges="E0 E0.40 E3"/>
    </vehicle>
    <vehicle id="EW_car.74" type="car" depart="462.50">
        <route edges="-E1 -E1.42 -E0"/>
    </vehicle>
    <vehicle id="NS_car.48" type="car" depart="468.29">
        <route edges="-E3 E2"/>
    </vehicle>
    <vehicle id="EW_car.75" type="car" depart="468.75">
        <route edges="-E1 -E1.42 -E0"/>
    </vehicle>
    <vehicle id="SN_car.24" type="car" depart="472.13">
        <route edges="-E2 -E2.41 -E0"/>
    </vehicle>
    <vehicle id="WE_car.33" type="car" depart="473.29">
        <route edges="E0 E0.40 E1"/>
    </vehicle>
    <vehicle id="EW_car.76" type="car" depart="475.00">
        <route edges="-E1 -E1.42 E2"/>
    </vehicle>
    <vehicle id="NS_car.49" type="car" depart="478.04">
        <route edges="-E3 E2"/>
    </vehicle>
    <vehicle id="EW_car.77" type="car" depart="481.25">
        <route edges="-E1 -E1.42 -E0"/>
    </vehicle>
    <vehicle id="EW_car.78" type="car" depart="487.50">
        <route edges="-E1 -E1.42 E3"/>
    </vehicle>
    <vehicle id="WE_car.34" type="car" depart="487.63">
        <route edges="E0 E0.40 E1"/>
    </vehicle>
    <vehicle id="NS_car.50" type="car" depart="487.80">
        <route edges="-E3 E2"/>
    </vehicle>
    <vehicle id="SN_car.25" type="car" depart="491.80">
        <route edges="-E2 -E2.41 E3"/>
    </vehicle>
    <vehicle id="EW_car.79" type="car" depart="493.75">
        <route edges="-E1 -E1.42 -E0"/>
    </vehicle>
    <vehicle id="NS_car.51" type="car" depart="497.56">
        <route edges="-E3 E1"/>
    </vehicle>
    <vehicle id="EW_car.80" type="car" depart="500.00">
        <route edges="-E1 -E1.42 -E0"/>
    </vehicle>
    <vehicle id="WE_car.35" type="car" depart="501.97">
        <route edges="E0 E0.40 E1"/>
    </vehicle>
    <vehicle id="EW_car.81" type="car" depart="506.25">
        <route edges="-E1 -E1.42 E2"/>
    </vehicle>
    <vehicle id="NS_car.52" type="car" depart="507.31">
        <route edges="-E3 E2"/>
    </vehicle>
    <vehicle id="SN_car.26" type="car" depart="511.47">
        <route edges="-E2 -E2.41 -E0"/>
    </vehicle>
    <vehicle id="EW_car.82" type="car" depart="512.50">
        <route edges="-E1 -E1.42 E2"/>
    </vehicle>
    <vehicle id="WE_car.36" type="car" depart="516.31">
        <route edges="E0 E0.40 E2"/>
    </vehicle>
    <vehicle id="NS_car.53" type="car" depart="517.07">
        <route edges="-E3 E1"/>
    </vehicle>
    <vehicle id="EW_car.83" type="car" depart="518.75">
        <route edges="-E1 -E1.42 -E0"/>
    </vehicle>
    <vehicle id="EW_car.84" type="car" depart="525.00">
        <route edges="-E1 -E1.42 -E0"/>
    </vehicle>
    <vehicle id="NS_car.54" type="car" depart="526.82">
        <route edges="-E3 -E0"/>
    </vehicle>
    <vehicle id="WE_car.37" type="car" depart="530.65">
        <route edges="E0 E0.40 E3"/>
    </vehicle>
    <vehicle id="SN_car.27" type="car" depart="531.14">
        <route edges="-E2 -E2.41 E3"/>
    </vehicle>
    <vehicle id="EW_car.85" type="car" depart="531.25">
        <route edges="-E1 -E1.42 E2"/>
    </vehicle>
    <vehicle id="NS_car.55" type="car" depart="536.58">
        <route edges="-E3 E1"/>
    </vehicle>
    <vehicle id="EW_car.86" type="car" depart="537.50">
        <route edges="-E1 -E1.42 -E0"/>
    </vehicle>
    <vehicle id="EW_car.87" type="car" depart="543.75">
        <route edges="-E1 -E1.42 E3"/>
    </vehicle>
    <vehicle id="WE_car.38" type="car" depart="545.00">
        <route edges="E0 E0.40 E1"/>
    </vehicle>
    <vehicle id="NS_car.56" type="car" depart="546.34">
        <route edges="-E3 E2"/>
    </vehicle>
    <vehicle id="EW_car.88" type="car" depart="550.00">
        <route edges="-E1 -E1.42 E2"/>
    </vehicle>
    <vehicle id="SN_car.28" type="car" depart="550.82">
        <route edges="-E2 -E2.41 -E0"/>
    </vehicle>
    <vehicle id="NS_car.57" type="car" depart="556.09">
        <route edges="-E3 E2"/>
    </vehicle>
    <vehicle id="EW_car.89" type="car" depart="556.25">
        <route edges="-E1 -E1.42 -E0"/>
    </vehicle>
    <vehicle id="WE_car.39" type="car" depart="559.34">
        <route edges="E0 E0.40 E1"/>
    </vehicle>
    <vehicle id="EW_car.90" type="car" depart="562.50">
        <route edges="-E1 -E1.42 E3"/>
    </vehicle>
    <vehicle id="NS_car.58" type="car" depart="565.85">
        <route edges="-E3 E2"/>
    </vehicle>
    <vehicle id="EW_car.91" type="car" depart="568.75">
        <route edges="-E1 -E1.42 E3"/>
    </vehicle>
    <vehicle id="SN_car.29" type="car" depart="570.49">
        <route edges="-E2 -E2.41 -E0"/>
    </vehicle>
    <vehicle id="WE_car.40" type="car" depart="573.68">
        <route edges="E0 E0.40 E3"/>
    </vehicle>
    <vehicle id="EW_car.92" type="car" depart="575.00">
        <route edges="-E1 -E1.42 E2"/>
    </vehicle>
    <vehicle id="NS_car.59" type="car" depart="575.60">
        <route edges="-E3 E1"/>
    </vehicle>
    <vehicle id="EW_car.93" type="car" depart="581.25">
        <route edges="-E1 -E1.42 E2"/>
    </vehicle>
    <vehicle id="NS_car.60" type="car" depart="585.36">
        <route edges="-E3 -E0"/>
    </vehicle>
    <vehicle id="EW_car.94" type="car" depart="587.50">
        <route edges="-E1 -E1.42 E2"/>
    </vehicle>
    <vehicle id="WE_car.41" type="car" depart="588.02">
        <route edges="E0 E0.40 E1"/>
    </vehicle>
    <vehicle id="SN_car.30" type="car" depart="590.16">
        <route edges="-E2 -E2.41 -E0"/>
    </vehicle>
    <vehicle id="EW_car.95" type="car" depart="593.75">
        <route edges="-E1 -E1.42 E3"/>
    </vehicle>
    <vehicle id="NS_car.61" type="car" depart="595.12">
        <route edges="-E3 -E0"/>
    </vehicle>
    <vehicle id="EW_car.96" type="car" depart="600.00">
        <route edges="-E1 -E1.42 -E0"/>
    </vehicle>
    <vehicle id="WE_car.42" type="car" depart="602.36">
        <route edges="E0 E0.40 E1"/>
    </vehicle>
    <vehicle id="NS_car.62" type="car" depart="604.87">
        <route edges="-E3 E2"/>
    </vehicle>
    <vehicle id="EW_car.97" type="car" depart="606.25">
        <route edges="-E1 -E1.42 E3"/>
    </vehicle>
    <vehicle id="SN_car.31" type="car" depart="609.83">
        <route edges="-E2 -E2.41 -E0"/>
    </vehicle>
    <vehicle id="EW_car.98" type="car" depart="612.50">
        <route edges="-E1 -E1.42 E3"/>
    </vehicle>
    <vehicle id="NS_car.63" type="car" depart="614.63">
        <route edges="-E3 E2"/>
    </vehicle>
    <vehicle id="WE_car.43" type="car" depart="616.71">
        <route edges="E0 E0.40 E1"/>
    </vehicle>
    <vehicle id="EW_car.99" type="car" depart="618.75">
        <route edges="-E1 -E1.42 -E0"/>
    </vehicle>
    <vehicle id="NS_car.64" type="car" depart="624.38">
        <route edges="-E3 E2"/>
    </vehicle>
    <vehicle id="EW_car.100" type="car" depart="625.00">
        <route edges="-E1 -E1.42 E2"/>
    </vehicle>
    <vehicle id="SN_car.32" type="car" depart="629.50">
        <route edges="-E2 -E2.41 E3"/>
    </vehicle>
    <vehicle id="WE_car.44" type="car" depart="631.05">
        <route edges="E0 E0.40 E3"/>
    </vehicle>
    <vehicle id="EW_car.101" type="car" depart="631.25">
        <route edges="-E1 -E1.42 -E0"/>
    </vehicle>
    <vehicle id="NS_car.65" type="car" depart="634.14">
        <route edges="-E3 -E0"/>
    </vehicle>
    <vehicle id="EW_car.102" type="car" depart="637.50">
        <route edges="-E1 -E1.42 E2"/>
    </vehicle>
    <vehicle id="EW_car.103" type="car" depart="643.75">
        <route edges="-E1 -E1.42 -E0"/>
    </vehicle>
    <vehicle id="NS_car.66" type="car" depart="643.90">
        <route edges="-E3 -E0"/>
    </vehicle>
    <vehicle id="WE_car.45" type="car" depart="645.39">
        <route edges="E0 E0.40 E2"/>
    </vehicle>
    <vehicle id="SN_car.33" type="car" depart="649.18">
        <route edges="-E2 -E2.41 E1"/>
    </vehicle>
    <vehicle id="EW_car.104" type="car" depart="650.00">
        <route edges="-E1 -E1.42 E3"/>
    </vehicle>
    <vehicle id="NS_car.67" type="car" depart="653.65">
        <route edges="-E3 E1"/>
    </vehicle>
    <vehicle id="EW_car.105" type="car" depart="656.25">
        <route edges="-E1 -E1.42 -E0"/>
    </vehicle>
    <vehicle id="WE_car.46" type="car" depart="659.73">
        <route edges="E0 E0.40 E3"/>
    </vehicle>
    <vehicle id="EW_car.106" type="car" depart="662.50">
        <route edges="-E1 -E1.42 E3"/>
    </vehicle>
    <vehicle id="NS_car.68" type="car" depart="663.41">
        <route edges="-E3 E1"/>
    </vehicle>
    <vehicle id="EW_car.107" type="car" depart="668.75">
        <route edges="-E1 -E1.42 -E0"/>
    </vehicle>
    <vehicle id="SN_car.34" type="car" depart="668.85">
        <route edges="-E2 -E2.41 E1"/>
    </vehicle>
    <vehicle id="NS_car.69" type="car" depart="673.16">
        <route edges="-E3 E1"/>
    </vehicle>
    <vehicle id="WE_car.47" type="car" depart="674.07">
        <route edges="E0 E0.40 E3"/>
    </vehicle>
    <vehicle id="EW_car.108" type="car" depart="675.00">
        <route edges="-E1 -E1.42 -E0"/>
    </vehicle>
    <vehicle id="EW_car.109" type="car" depart="681.25">
        <route edges="-E1 -E1.42 E2"/>
    </vehicle>
    <vehicle id="NS_car.70" type="car" depart="682.92">
        <route edges="-E3 E1"/>
    </vehicle>
    <vehicle id="EW_car.110" type="car" depart="687.50">
        <route edges="-E1 -E1.42 -E0"/>
    </vehicle>
    <vehicle id="WE_car.48" type="car" depart="688.42">
        <route edges="E0 E0.40 E3"/>
    </vehicle>
    <vehicle id="SN_car.35" type="car" depart="688.52">
        <route edges="-E2 -E2.41 -E0"/>
    </vehicle>
    <vehicle id="NS_car.71" type="car" depart="692.68">
        <route edges="-E3 E2"/>
    </vehicle>
    <vehicle id="EW_car.111" type="car" depart="693.75">
        <route edges="-E1 -E1.42 -E0"/>
    </vehicle>
    <vehicle id="EW_car.112" type="car" depart="700.00">
        <route edges="-E1 -E1.42 E2"/>
    </vehicle>
    <vehicle id="NS_car.72" type="car" depart="702.43">