<?xml version="1.0" encoding="UTF-8"?>

<!-- generated on 2026-05-23 17:20:58 by Eclipse SUMO netedit Version 1.13.0
<configuration xmlns:xsi="http://www.w3.org/2001/XMLSchema-instance" xsi:noNamespaceSchemaLocation="http://sumo.dlr.de/xsd/netconvertConfiguration.xsd">

    <output>
        <output-file value="C:\Users\Administrator\Desktop\0523\2\2.net.xml"/>
    </output>

    <processing>
        <offset.disable-normalization value="true"/>
    </processing>

    <junctions>
        <no-turnarounds value="true"/>
    </junctions>

    <report>
        <aggregate-warnings value="5"/>
    </report>

</configuration>
-->

<net version="1.9" junctionCornerDetail="5" limitTurnSpeed="5.50" xmlns:xsi="http://www.w3.org/2001/XMLSchema-instance" xsi:noNamespaceSchemaLocation="http://sumo.dlr.de/xsd/net_file.xsd">

    <location netOffset="0.00,0.00" convBoundary="-182.48,-239.11,198.66,221.62" origBoundary="10000000000.00,10000000000.00,-10000000000.00,-10000000000.00" projParameter="!"/>

    <edge id=":J1_0" function="internal">
        <lane id=":J1_0_0" index="0" speed="6.74" length="9.60" shape="17.94,5.58 15.36,5.96 13.49,7.07 12.35,8.93 11.94,11.53"/>
    </edge>
    <edge id=":J1_1" function="internal">
        <lane id=":J1_1_0" index="0" speed="13.89" length="27.53" shape="17.94,5.58 -9.59,5.61"/>
        <lane id=":J1_1_1" index="1" speed="13.89" length="27.53" shape="17.94,2.38 -9.59,2.41"/>
        <lane id=":J1_1_2" index="2" speed="13.89" length="27.53" shape="17.93,-0.82 -9.59,-0.79"/>
    </edge>
    <edge id=":J1_4" function="internal">
        <lane id=":J1_4_0" index="0" speed="10.34" length="24.68" shape="17.93,-0.82 11.22,-1.76 6.46,-4.63 3.64,-9.43 2.76,-16.15"/>
    </edge>
    <edge id=":J1_5" function="internal">
        <lane id=":J1_5_0" index="0" speed="6.48" length="9.03" shape="12.36,-16.03 12.68,-13.57 13.71,-11.82 15.45,-10.77 17.91,-10.42"/>
    </edge>
    <edge id=":J1_6" function="internal">
        <lane id=":J1_6_0" index="0" speed="13.89" length="27.54" shape="12.36,-16.03 11.94,11.53"/>
        <lane id=":J1_6_1" index="1" speed="13.89" length="27.54" shape="9.16,-16.07 8.74,11.47"/>
        <lane id=":J1_6_2" index="2" speed="13.89" length="27.54" shape="5.96,-16.11 5.54,11.41"/>
    </edge>
    <edge id=":J1_9" function="internal">
        <lane id=":J1_9_0" index="0" speed="10.47" length="24.82" shape="5.96,-16.11 4.92,-9.41 1.98,-4.62 -2.86,-1.75 -9.59,-0.79"/>
    </edge>
    <edge id=":J1_10" function="internal">
        <lane id=":J1_10_0" index="0" speed="6.68" length="9.47" shape="-9.59,-10.39 -7.01,-10.75 -5.16,-11.85 -4.04,-13.67 -3.64,-16.22"/>
    </edge>
    <edge id=":J1_11" function="internal">
        <lane id=":J1_11_0" index="0" speed="13.89" length="27.51" shape="-9.59,-10.39 17.91,-10.42"/>
        <lane id=":J1_11_1" index="1" speed="13.89" length="27.51" shape="-9.59,-7.19 17.92,-7.22"/>
        <lane id=":J1_11_2" index="2" speed="13.89" length="27.51" shape="-9.59,-3.99 17.92,-4.02"/>
    </edge>
    <edge id=":J1_14" function="internal">
        <lane id=":J1_14_0" index="0" speed="10.34" length="24.72" shape="-9.59,-3.99 -2.86,-3.03 1.90,-0.14 4.70,4.68 5.54,11.41"/>
    </edge>
    <edge id=":J1_15" function="internal">
        <lane id=":J1_15_0" index="0" speed="6.47" length="9.03" shape="-4.06,11.24 -4.37,8.78 -5.39,7.02 -7.13,5.96 -9.59,5.61"/>
    </edge>
    <edge id=":J1_16" function="internal">
        <lane id=":J1_16_0" index="0" speed="13.89" length="27.49" shape="-4.06,11.24 -3.64,-16.22"/>
        <lane id=":J1_16_1" index="1" speed="13.89" length="27.49" shape="-0.86,11.30 -0.44,-16.18"/>
        <lane id=":J1_16_2" index="2" speed="13.89" length="27.49" shape="2.34,11.36 2.76,-16.15"/>
    </edge>
    <edge id=":J1_19" function="internal">
        <lane id=":J1_19_0" index="0" speed="10.51" length="24.85" shape="2.34,11.36 3.42,4.64 6.38,-0.16 11.21,-3.05 17.92,-4.02"/>
    </edge>

    <edge id="-E0" from="J1" to="J0" priority="-1">
        <lane id="-E0_0" index="0" speed="13.89" length="172.89" shape="-9.59,5.61 -182.48,5.61"/>
        <lane id="-E0_1" index="1" speed="13.89" length="172.89" shape="-9.59,2.41 -182.48,2.41"/>
        <lane id="-E0_2" index="2" speed="13.89" length="172.89" shape="-9.59,-0.79 -182.48,-0.79"/>
    </edge>
    <edge id="-E1" from="J2" to="J1" priority="-1">
        <lane id="-E1_0" index="0" speed="13.89" length="180.73" shape="198.68,5.20 17.94,5.58"/>
        <lane id="-E1_1" index="1" speed="13.89" length="180.73" shape="198.67,2.00 17.94,2.38"/>
        <lane id="-E1_2" index="2" speed="13.89" length="180.73" shape="198.66,-1.20 17.93,-0.82"/>
    </edge>
    <edge id="-E2" from="J3" to="J1" priority="-1">
        <lane id="-E2_0" index="0" speed="13.89" length="223.00" shape="15.06,-239.01 12.36,-16.03"/>
        <lane id="-E2_1" index="1" speed="13.89" length="223.00" shape="11.86,-239.05 9.16,-16.07"/>
        <lane id="-E2_2" index="2" speed="13.89" length="223.00" shape="8.66,-239.09 5.96,-16.11"/>
    </edge>
    <edge id="-E3" from="J4" to="J1" priority="-1">
        <lane id="-E3_0" index="0" speed="13.89" length="210.27" shape="-7.91,221.47 -4.06,11.24"/>
        <lane id="-E3_1" index="1" speed="13.89" length="210.27" shape="-4.71,221.53 -0.86,11.30"/>
        <lane id="-E3_2" index="2" speed="13.89" length="210.27" shape="-1.51,221.59 2.34,11.36"/>
    </edge>
    <edge id="E0" from="J0" to="J1" priority="-1">
        <lane id="E0_0" index="0" speed="13.89" length="172.89" shape="-182.48,-10.39 -9.59,-10.39"/>
        <lane id="E0_1" index="1" speed="13.89" length="172.89" shape="-182.48,-7.19 -9.59,-7.19"/>
        <lane id="E0_2" index="2" speed="13.89" length="172.89" shape="-182.48,-3.99 -9.59,-3.99"/>
    </edge>
    <edge id="E1" from="J1" to="J2" priority="-1">
        <lane id="E1_0" index="0" speed="13.89" length="180.73" shape="17.91,-10.42 198.64,-10.80"/>
        <lane id="E1_1" index="1" speed="13.89" length="180.73" shape="17.92,-7.22 198.65,-7.60"/>
        <lane id="E1_2" index="2" speed="13.89" length="180.73" shape="17.92,-4.02 198.66,-4.40"/>
    </edge>
    <edge id="E2" from="J1" to="J3" priority="-1">
        <lane id="E2_0" index="0" speed="13.89" length="223.00" shape="-3.64,-16.22 -0.94,-239.21"/>
        <lane id="E2_1" index="1" speed="13.89" length="223.00" shape="-0.44,-16.18 2.26,-239.17"/>
        <lane id="E2_2" index="2" speed="13.89" length="223.00" shape="2.76,-16.15 5.46,-239.13"/>
    </edge>
    <edge id="E3" from="J1" to="J4" priority="-1">
        <lane id="E3_0" index="0" speed="13.89" length="210.27" shape="11.94,11.53 8.09,221.77"/>
        <lane id="E3_1" index="1" speed="13.89" length="210.27" shape="8.74,11.47 4.89,221.71"/>
        <lane id="E3_2" index="2" speed="13.89" length="210.27" shape="5.54,11.41 1.69,221.65"/>
    </edge>

    <tlLogic id="J1" type="static" programID="0" offset="0">
        <phase duration="60" state="GGGGrGrrrrGGGGrGrrrr"/>
        <phase duration="3"  state="GYYYrGrrrrGYYYrGrrrr"/>
        <phase duration="2"  state="GrrrrGrrrrGrrrrGrrrr"/>
        <phase duration="30" state="GrrrGGrrrrGrrrGGrrrr"/>
        <phase duration="3"  state="GrrrYGrrrrGrrrYGrrrr"/>
        <phase duration="2"  state="GrrrrGrrrrGrrrrGrrrr"/>
        <phase duration="55" state="GrrrrGGGGrGrrrrGGGGr"/>
        <phase duration="3"  state="GrrrrGYYYrGrrrrGYYYr"/>
        <phase duration="2"  state="GrrrrGrrrrGrrrrGrrrr"/>
        <phase duration="30" state="GrrrrGrrrGGrrrrGrrrG"/>
        <phase duration="3"  state="GrrrrGrrrYGrrrrGrrrY"/>
        <phase duration="2"  state="GrrrrGrrrrGrrrrGrrrr"/>
    </tlLogic>

    <junction id="J0" type="dead_end" x="-182.48" y="-2.39" incLanes="-E0_0 -E0_1 -E0_2" intLanes="" shape="-182.48,-2.39 -182.48,7.21 -182.48,-2.39"/>
    <junction id="J1" type="traffic_light" x="4.19" y="-2.39" incLanes="-E1_0 -E1_1 -E1_2 -E2_0 -E2_1 -E2_2 E0_0 E0_1 E0_2 -E3_0 -E3_1 -E3_2" intLanes=":J1_0_0 :J1_1_0 :J1_1_1 :J1_1_2 :J1_4_0 :J1_5_0 :J1_6_0 :J1_6_1 :J1_6_2 :J1_9_0 :J1_10_0 :J1_11_0 :J1_11_1 :J1_11_2 :J1_14_0 :J1_15_0 :J1_16_0 :J1_16_1 :J1_16_2 :J1_19_0" shape="17.95,7.18 17.91,-12.02 15.69,-12.46 14.92,-13.01 14.37,-13.79 14.05,-14.79 13.96,-16.01 -5.24,-16.24 -5.75,-13.88 -6.35,-13.05 -7.20,-12.46 -8.27,-12.11 -9.59,-11.99 -9.59,7.21 -7.37,7.65 -6.61,8.21 -6.06,8.99 -5.75,9.99 -5.66,11.21 13.54,11.56 14.06,9.13 14.68,8.28 15.53,7.67 16.62,7.31">
        <request index="0"  response="00000000000000000000" foes="00000000000111000000" cont="0"/>
        <request index="1"  response="00000000000000000000" foes="11111100001111000000" cont="0"/>
        <request index="2"  response="00000000000000000000" foes="11111100001111000000" cont="0"/>
        <request index="3"  response="00000000000000000000" foes="11111100001111000000" cont="0"/>
        <request index="4"  response="00000011100000000000" foes="11110011101111000000" cont="0"/>
        <request index="5"  response="00000011100000000000" foes="00000011100000000000" cont="0"/>
        <request index="6"  response="00000111100000011111" foes="10000111100000011111" cont="0"/>
        <request index="7"  response="00000111100000011111" foes="10000111100000011111" cont="0"/>
        <request index="8"  response="00000111100000011111" foes="10000111100000011111" cont="0"/>
        <request index="9"  response="01110111100000011110" foes="01110111100000011110" cont="0"/>
        <request index="10" response="00000000000000000000" foes="01110000000000000000" cont="0"/>
        <request index="11" response="00000000000000000000" foes="11110000001111110000" cont="0"/>
        <request index="12" response="00000000000000000000" foes="11110000001111110000" cont="0"/>
        <request index="13" response="00000000000000000000" foes="11110000001111110000" cont="0"/>
        <request index="14" response="00000000000000001110" foes="11110000001111001110" cont="0"/>
        <request index="15" response="00000000000000001110" foes="00000000000000001110" cont="0"/>
        <request index="16" response="00000111110000011110" foes="00000111111000011110" cont="0"/>
        <request index="17" response="00000111110000011110" foes="00000111111000011110" cont="0"/>
        <request index="18" response="00000111110000011110" foes="00000111111000011110" cont="0"/>
        <request index="19" response="00000111100111011110" foes="00000111100111011110" cont="0"/>
    </junction>
    <junction id="J2" type="dead_end" x="198.66" y="-2.80" incLanes="E1_0 E1_1 E1_2" intLanes="" shape="198.66,-2.80 198.64,-12.40 198.66,-2.80"/>
    <junction id="J3" type="dead_end" x="7.06" y="-239.11" incLanes="E2_0 E2_1 E2_2" intLanes="" shape="7.06,-239.11 -2.54,-239.23 7.06,-239.11"/>
    <junction id="J4" type="dead_end" x="0.09" y="221.62" incLanes="E3_0 E3_1 E3_2" intLanes="" shape="0.09,221.62 9.69,221.79 0.09,221.62"/>

    <connection from="-E1" to="E3" fromLane="0" toLane="0" via=":J1_0_0" tl="J1" linkIndex="0" dir="r" state="O"/>
    <connection from="-E1" to="-E0" fromLane="0" toLane="0" via=":J1_1_0" tl="J1" linkIndex="1" dir="s" state="O"/>
    <connection from="-E1" to="-E0" fromLane="1" toLane="1" via=":J1_1_1" tl="J1" linkIndex="2" dir="s" state="O"/>
    <connection from="-E1" to="-E0" fromLane="2" toLane="2" via=":J1_1_2" tl="J1" linkIndex="3" dir="s" state="O"/>
    <connection from="-E1" to="E2" fromLane="2" toLane="2" via=":J1_4_0" tl="J1" linkIndex="4" dir="l" state="o"/>
    <connection from="-E2" to="E1" fromLane="0" toLane="0" via=":J1_5_0" tl="J1" linkIndex="5" dir="r" state="o"/>
    <connection from="-E2" to="E3" fromLane="0" toLane="0" via=":J1_6_0" tl="J1" linkIndex="6" dir="s" state="o"/>
    <connection from="-E2" to="E3" fromLane="1" toLane="1" via=":J1_6_1" tl="J1" linkIndex="7" dir="s" state="o"/>
    <connection from="-E2" to="E3" fromLane="2" toLane="2" via=":J1_6_2" tl="J1" linkIndex="8" dir="s" state="o"/>
    <connection from="-E2" to="-E0" fromLane="2" toLane="2" via=":J1_9_0" tl="J1" linkIndex="9" dir="l" state="o"/>
    <connection from="-E3" to="-E0" fromLane="0" toLane="0" via=":J1_15_0" tl="J1" linkIndex="15" dir="r" state="o"/>
    <connection from="-E3" to="E2" fromLane="0" toLane="0" via=":J1_16_0" tl="J1" linkIndex="16" dir="s" state="o"/>
    <connection from="-E3" to="E2" fromLane="1" toLane="1" via=":J1_16_1" tl="J1" linkIndex="17" dir="s" state="o"/>
    <connection from="-E3" to="E2" fromLane="2" toLane="2" via=":J1_16_2" tl="J1" linkIndex="18" dir="s" state="o"/>
    <connection from="-E3" to="E1" fromLane="2" toLane="2" via=":J1_19_0" tl="J1" linkIndex="19" dir="l" state="o"/>
    <connection from="E0" to="E2" fromLane="0" toLane="0" via=":J1_10_0" tl="J1" linkIndex="10" dir="r" state="O"/>
    <connection from="E0" to="E1" fromLane="0" toLane="0" via=":J1_11_0" tl="J1" linkIndex="11" dir="s" state="O"/>
    <connection from="E0" to="E1" fromLane="1" toLane="1" via=":J1_11_1" tl="J1" linkIndex="12" dir="s" state="O"/>
    <connection from="E0" to="E1" fromLane="2" toLane="2" via=":J1_11_2" tl="J1" linkIndex="13" dir="s" state="O"/>
    <connection from="E0" to="E3" fromLane="2" toLane="2" via=":J1_14_0" tl="J1" linkIndex="14" dir="l" state="o"/>

    <connection from=":J1_0" to="E3" fromLane="0" toLane="0" dir="r" state="M"/>
    <connection from=":J1_1" to="-E0" fromLane="0" toLane="0" dir="s" state="M"/>
    <connection from=":J1_1" to="-E0" fromLane="1" toLane="1" dir="s" state="M"/>
    <connection from=":J1_1" to="-E0" fromLane="2" toLane="2" dir="s" state="M"/>
    <connection from=":J1_4" to="E2" fromLane="0" toLane="2" dir="l" state="M"/>
    <connection from=":J1_5" to="E1" fromLane="0" toLane="0" dir="r" state="M"/>
    <connection from=":J1_6" to="E3" fromLane="0" toLane="0" dir="s" state="M"/>
    <connection from=":J1_6" to="E3" fromLane="1" toLane="1" dir="s" state="M"/>
    <connection from=":J1_6" to="E3" fromLane="2" toLane="2" dir="s" state="M"/>
    <connection from=":J1_9" to="-E0" fromLane="0" toLane="2" dir="l" state="M"/>
    <connection from=":J1_10" to="E2" fromLane="0" toLane="0" dir="r" state="M"/>
    <connection from=":J1_11" to="E1" fromLane="0" toLane="0" dir="s" state="M"/>
    <connection from=":J1_11" to="E1" fromLane="1" toLane="1" dir="s" state="M"/>
    <connection from=":J1_11" to="E1" fromLane="2" toLane="2" dir="s" state="M"/>
    <connection from=":J1_14" to="E3" fromLane="0" toLane="2" dir="l" state="M"/>
    <connection from=":J1_15" to="-E0" fromLane="0" toLane="0" dir="r" state="M"/>
    <connection from=":J1_16" to="E2" fromLane="0" toLane="0" dir="s" state="M"/>
    <connection from=":J1_16" to="E2" fromLane="1" toLane="1" dir="s" state="M"/>
    <connection from=":J1_16" to="E2" fromLane="2" toLane="2" dir="s" state="M"/>
    <connection from=":J1_19" to="E1" fromLane="0" toLane="2" dir="l" state="M"/>

</net>
