<?xml version="1.0" encoding="UTF-8"?>

<!-- generated on 2026-05-23 17:37:05 by Eclipse SUMO jtrrouter Version 1.13.0
<configuration xmlns:xsi="http://www.w3.org/2001/XMLSchema-instance" xsi:noNamespaceSchemaLocation="http://sumo.dlr.de/xsd/jtrrouterConfiguration.xsd">

    <input>
        <net-file value="2.net.xml"/>
        <route-files value="2.flow.xml"/>
        <turn-ratio-files value="2.turn.xml"/>
    </input>

    <output>
        <output-file value="2.rou.xml"/>
    </output>

    <processing>
        <no-internal-links value="true"/>
        <accept-all-destinations value="true"/>
    </processing>

    <time>
        <begin value="0"/>
        <end value="3600"/>
    </time>

</configuration>
-->

<routes xmlns:xsi="http://www.w3.org/2001/XMLSchema-instance" xsi:noNamespaceSchemaLocation="http://sumo.dlr.de/xsd/routes_file.xsd">
    <vType id="car" maxSpeed="37.00" vClass="passenger"/>
    <vehicle id="E_car.0" type="car" depart="0.00">
        <route edges="-E1 E3"/>
    </vehicle>
    <vehicle id="N_car.0" type="car" depart="0.00">
        <route edges="-E3 E2"/>
    </vehicle>
    <vehicle id="S_car.0" type="car" depart="0.00">
        <route edges="-E2 -E0"/>
    </vehicle>
    <vehicle id="W_car.0" type="car" depart="0.00">
        <route edges="E0 E2"/>
    </vehicle>
    <vehicle id="E_car.1" type="car" depart="4.77">
        <route edges="-E1 E2"/>
    </vehicle>
    <vehicle id="W_car.1" type="car" depart="5.22">
        <route edges="E0 E1"/>
    </vehicle>
    <vehicle id="S_car.1" type="car" depart="5.74">
        <route edges="-E2 E3"/>
    </vehicle>
    <vehicle id="N_car.1" type="car" depart="6.39">
        <route edges="-E3 E1"/>
    </vehicle>
    <vehicle id="E_car.2" type="car" depart="9.55">
        <route edges="-E1 E2"/>
    </vehicle>
    <vehicle id="W_car.2" type="car" depart="10.45">
        <route edges="E0 E3"/>
    </vehicle>
    <vehicle id="S_car.2" type="car" depart="11.48">
        <route edges="-E2 -E0"/>
    </vehicle>
    <vehicle id="N_car.2" type="car" depart="12.79">
        <route edges="-E3 E2"/>
    </vehicle>
    <vehicle id="E_car.3" type="car" depart="14.32">
        <route edges="-E1 E2"/>
    </vehicle>
    <vehicle id="W_car.3" type="car" depart="15.67">
        <route edges="E0 E2"/>
    </vehicle>
    <vehicle id="S_car.3" type="car" depart="17.22">
        <route edges="-E2 E3"/>
    </vehicle>
    <vehicle id="E_car.4" type="car" depart="19.10">
        <route edges="-E1 -E0"/>
    </vehicle>
    <vehicle id="N_car.3" type="car" depart="19.18">
        <route edges="-E3 -E0"/>
    </vehicle>
    <vehicle id="W_car.4" type="car" depart="20.90">
        <route edges="E0 E3"/>
    </vehicle>
    <vehicle id="S_car.4" type="car" depart="22.96">
        <route edges="-E2 E1"/>
    </vehicle>
    <vehicle id="E_car.5" type="car" depart="23.87">
        <route edges="-E1 E2"/>
    </vehicle>
    <vehicle id="N_car.4" type="car" depart="25.58">
        <route edges="-E3 -E0"/>
    </vehicle>
    <vehicle id="W_car.5" type="car" depart="26.12">
        <route edges="E0 E2"/>
    </vehicle>
    <vehicle id="E_car.6" type="car" depart="28.64">
        <route edges="-E1 -E0"/>
    </vehicle>
    <vehicle id="S_car.5" type="car" depart="28.71">
        <route edges="-E2 E3"/>
    </vehicle>
    <vehicle id="W_car.6" type="car" depart="31.34">
        <route edges="E0 E3"/>
    </vehicle>
    <vehicle id="N_car.5" type="car" depart="31.97">
        <route edges="-E3 E2"/>
    </vehicle>
    <vehicle id="E_car.7" type="car" depart="33.42">
        <route edges="-E1 E3"/>
    </vehicle>
    <vehicle id="S_car.6" type="car" depart="34.45">
        <route edges="-E2 E1"/>
    </vehicle>
    <vehicle id="W_car.7" type="car" depart="36.57">
        <route edges="E0 E2"/>
    </vehicle>
    <vehicle id="E_car.8" type="car" depart="38.19">
        <route edges="-E1 -E0"/>
    </vehicle>
    <vehicle id="N_car.6" type="car" depart="38.36">
        <route edges="-E3 -E0"/>
    </vehicle>
    <vehicle id="S_car.7" type="car" depart="40.19">
        <route edges="-E2 -E0"/>
    </vehicle>
    <vehicle id="W_car.8" type="car" depart="41.79">
        <route edges="E0 E3"/>
    </vehicle>
    <vehicle id="E_car.9" type="car" depart="42.97">
        <route edges="-E1 -E0"/>
    </vehicle>
    <vehicle id="N_car.7" type="car" depart="44.76">
        <route edges="-E3 E2"/>
    </vehicle>
    <vehicle id="S_car.8" type="car" depart="45.93">
        <route edges="-E2 -E0"/>
    </vehicle>
    <vehicle id="W_car.9" type="car" depart="47.02">
        <route edges="E0 E3"/>
    </vehicle>
    <vehicle id="E_car.10" type="car" depart="47.74">
        <route edges="-E1 -E0"/>
    </vehicle>
    <vehicle id="N_car.8" type="car" depart="51.15">
        <route edges="-E3 -E0"/>
    </vehicle>
    <vehicle id="S_car.9" type="car" depart="51.67">
        <route edges="-E2 -E0"/>
    </vehicle>
    <vehicle id="W_car.10" type="car" depart="52.24">
        <route edges="E0 E1"/>
    </vehicle>
    <vehicle id="E_car.11" type="car" depart="52.51">
        <route edges="-E1 E3"/>
    </vehicle>
    <vehicle id="E_car.12" type="car" depart="57.29">
        <route edges="-E1 -E0"/>
    </vehicle>
    <vehicle id="S_car.10" type="car" depart="57.41">
        <route edges="-E2 -E0"/>
    </vehicle>
    <vehicle id="W_car.11" type="car" depart="57.46">
        <route edges="E0 E1"/>
    </vehicle>
    <vehicle id="N_car.9" type="car" depart="57.55">
        <route edges="-E3 E2"/>
    </vehicle>
    <vehicle id="E_car.13" type="car" depart="62.06">
        <route edges="-E1 -E0"/>
    </vehicle>
    <vehicle id="W_car.12" type="car" depart="62.69">
        <route edges="E0 E3"/>
    </vehicle>
    <vehicle id="S_car.11" type="car" depart="63.15">
        <route edges="-E2 -E0"/>
    </vehicle>
    <vehicle id="N_car.10" type="car" depart="63.94">
        <route edges="-E3 E2"/>
    </vehicle>
    <vehicle id="E_car.14" type="car" depart="66.84">
        <route edges="-E1 E2"/>
    </vehicle>
    <vehicle id="W_car.13" type="car" depart="67.91">
        <route edges="E0 E2"/>
    </vehicle>
    <vehicle id="S_car.12" type="car" depart="68.89">
        <route edges="-E2 E3"/>
    </vehicle>
    <vehicle id="N_car.11" type="car" depart="70.33">
        <route edges="-E3 E2"/>
    </vehicle>
    <vehicle id="E_car.15" type="car" depart="71.61">
        <route edges="-E1 E3"/>
    </vehicle>
    <vehicle id="W_car.14" type="car" depart="73.14">
        <route edges="E0 E1"/>
    </vehicle>
    <vehicle id="S_car.13" type="car" depart="74.63">
        <route edges="-E2 E1"/>
    </vehicle>
    <vehicle id="E_car.16" type="car" depart="76.38">
        <route edges="-E1 E2"/>
    </vehicle>
    <vehicle id="N_car.12" type="car" depart="76.73">
        <route edges="-E3 -E0"/>
    </vehicle>
    <vehicle id="W_car.15" type="car" depart="78.36">
        <route edges="E0 E3"/>
    </vehicle>
    <vehicle id="S_car.14" type="car" depart="80.37">
        <route edges="-E2 -E0"/>
    </vehicle>
    <vehicle id="E_car.17" type="car" depart="81.16">
        <route edges="-E1 E2"/>
    </vehicle>
    <vehicle id="N_car.13" type="car" depart="83.12">
        <route edges="-E3 -E0"/>
    </vehicle>
    <vehicle id="W_car.16" type="car" depart="83.58">
        <route edges="E0 E1"/>
    </vehicle>
    <vehicle id="E_car.18" type="car" depart="85.93">
        <route edges="-E1 -E0"/>
    </vehicle>
    <vehicle id="S_car.15" type="car" depart="86.12">
        <route edges="-E2 E3"/>
    </vehicle>
    <vehicle id="W_car.17" type="car" depart="88.81">
        <route edges="E0 E3"/>
    </vehicle>
    <vehicle id="N_car.14" type="car" depart="89.52">
        <route edges="-E3 -E0"/>
    </vehicle>
    <vehicle id="E_car.19" type="car" depart="90.71">
        <route edges="-E1 -E0"/>
    </vehicle>
    <vehicle id="S_car.16" type="car" depart="91.86">
        <route edges="-E2 E3"/>
    </vehicle>
    <vehicle id="W_car.18" type="car" depart="94.03">
        <route edges="E0 E1"/>
    </vehicle>
    <vehicle id="E_car.20" type="car" depart="95.48">
        <route edges="-E1 -E0"/>
    </vehicle>
    <vehicle id="N_car.15" type="car" depart="95.91">
        <route edges="-E3 -E0"/>
    </vehicle>
    <vehicle id="S_car.17" type="car" depart="97.60">
        <route edges="-E2 E3"/>
    </vehicle>
    <vehicle id="W_car.19" type="car" depart="99.26">
        <route edges="E0 E1"/>
    </vehicle>
    <vehicle id="E_car.21" type="car" depart="100.25">
        <route edges="-E1 -E0"/>
    </vehicle>
    <vehicle id="N_car.16" type="car" depart="102.30">
        <route edges="-E3 -E0"/>
    </vehicle>
    <vehicle id="S_car.18" type="car" depart="103.34">
        <route edges="-E2 -E0"/>
    </vehicle>
    <vehicle id="W_car.20" type="car" depart="104.48">
        <route edges="E0 E3"/>
    </vehicle>
    <vehicle id="E_car.22" type="car" depart="105.03">
        <route edges="-E1 -E0"/>
    </vehicle>
    <vehicle id="N_car.17" type="car" depart="108.70">
        <route edges="-E3 E1"/>
    </vehicle>
    <vehicle id="S_car.19" type="car" depart="109.08">
        <route edges="-E2 -E0"/>
    </vehicle>
    <vehicle id="W_car.21" type="car" depart="109.70">
        <route edges="E0 E3"/>
    </vehicle>
    <vehicle id="E_car.23" type="car" depart="109.80">
        <route edges="-E1 -E0"/>
    </vehicle>
    <vehicle id="E_car.24" type="car" depart="114.58">
        <route edges="-E1 E2"/>
    </vehicle>
    <vehicle id="S_car.20" type="car" depart="114.82">
        <route edges="-E2 E1"/>
    </vehicle>
    <vehicle id="W_car.22" type="car" depart="114.93">
        <route edges="E0 E2"/>
    </vehicle>
    <vehicle id="N_car.18" type="car" depart="115.09">
        <route edges="-E3 E2"/>
    </vehicle>
    <vehicle id="E_car.25" type="car" depart="119.35">
        <route edges="-E1 E2"/>
    </vehicle>
    <vehicle id="W_car.23" type="car" depart="120.15">
        <route edges="E0 E1"/>
    </vehicle>
    <vehicle id="S_car.21" type="car" depart="120.56">
        <route edges="-E2 E1"/>
    </vehicle>
    <vehicle id="N_car.19" type="car" depart="121.49">
        <route edges="-E3 E2"/>
    </vehicle>
    <vehicle id="E_car.26" type="car" depart="124.12">
        <route edges="-E1 -E0"/>
    </vehicle>
    <vehicle id="W_car.24" type="car" depart="125.38">
        <route edges="E0 E1"/>
    </vehicle>
    <vehicle id="S_car.22" type="car" depart="126.30">
        <route edges="-E2 -E0"/>
    </vehicle>
    <vehicle id="N_car.20" type="car" depart="127.88">
        <route edges="-E3 E2"/>
    </vehicle>
    <vehicle id="E_car.27" type="car" depart="128.90">
        <route edges="-E1 E2"/>
    </vehicle>
    <vehicle id="W_car.25" type="car" depart="130.60">
        <route edges="E0 E3"/>
    </vehicle>
    <vehicle id="S_car.23" type="car" depart="132.04">
        <route edges="-E2 E1"/>
    </vehicle>
    <vehicle id="E_car.28" type="car" depart="133.67">
        <route edges="-E1 -E0"/>
    </vehicle>
    <vehicle id="N_car.21" type="car" depart="134.27">
        <route edges="-E3 E2"/>
    </vehicle>
    <vehicle id="W_car.26" type="car" depart="135.82">
        <route edges="E0 E2"/>
    </vehicle>
    <vehicle id="S_car.24" type="car" depart="137.78">
        <route edges="-E2 E3"/>
    </vehicle>
    <vehicle id="E_car.29" type="car" depart="138.45">
        <route edges="-E1 E2"/>
    </vehicle>
    <vehicle id="N_car.22" type="car" depart="140.67">
        <route edges="-E3 E2"/>
    </vehicle>
    <vehicle id="W_car.27" type="car" depart="141.05">
        <route edges="E0 E1"/>
    </vehicle>
    <vehicle id="E_car.30" type="car" depart="143.22">
        <route edges="-E1 -E0"/>
    </vehicle>
    <vehicle id="S_car.25" type="car" depart="143.53">
        <route edges="-E2 E1"/>
    </vehicle>
    <vehicle id="W_car.28" type="car" depart="146.27">
        <route edges="E0 E3"/>
    </vehicle>
    <vehicle id="N_car.23" type="car" depart="147.06">
        <route edges="-E3 -E0"/>
    </vehicle>
    <vehicle id="E_car.31" type="car" depart="147.99">
        <route edges="-E1 E2"/>
    </vehicle>
    <vehicle id="S_car.26" type="car" depart="149.27">
        <route edges="-E2 E3"/>
    </vehicle>
    <vehicle id="W_car.29" type="car" depart="151.50">
        <route edges="E0 E3"/>
    </vehicle>
    <vehicle id="E_car.32" type="car" depart="152.77">
        <route edges="-E1 -E0"/>
    </vehicle>
    <vehicle id="N_car.24" type="car" depart="153.46">
        <route edges="-E3 E2"/>
    </vehicle>
    <vehicle id="S_car.27" type="car" depart="155.01">
        <route edges="-E2 -E0"/>
    </vehicle>
    <vehicle id="W_car.30" type="car" depart="156.72">
        <route edges="E0 E3"/>
    </vehicle>
    <vehicle id="E_car.33" type="car" depart="157.54">
        <route edges="-E1 -E0"/>
    </vehicle>
    <vehicle id="N_car.25" type="car" depart="159.85">
        <route edges="-E3 E2"/>
    </vehicle>
    <vehicle id="S_car.28" type="car" depart="160.75">
        <route edges="-E2 E1"/>
    </vehicle>
    <vehicle id="W_car.31" type="car" depart="161.94">
        <route edges="E0 E2"/>
    </vehicle>
    <vehicle id="E_car.34" type="car" depart="162.32">
        <route edges="-E1 -E0"/>
    </vehicle>
    <vehicle id="N_car.26" type="car" depart="166.24">
        <route edges="-E3 E1"/>
    </vehicle>
    <vehicle id="S_car.29" type="car" depart="166.49">
        <route edges="-E2 E3"/>
    </vehicle>
    <vehicle id="E_car.35" type="car" depart="167.09">
        <route edges="-E1 E3"/>
    </vehicle>
    <vehicle id="W_car.32" type="car" depart="167.17">
        <route edges="E0 E3"/>
    </vehicle>
    <vehicle id="E_car.36" type="car" depart="171.86">
        <route edges="-E1 -E0"/>
    </vehicle>
    <vehicle id="S_car.30" type="car" depart="172.23">
        <route edges="-E2 E3"/>
    </vehicle>
    <vehicle id="W_car.33" type="car" depart="172.39">
        <route edges="E0 E1"/>
    </vehicle>
    <vehicle id="N_car.27" type="car" depart="172.64">
        <route edges="-E3 E2"/>
    </vehicle>
    <vehicle id="E_car.37" type="car" depart="176.64">
        <route edges="-E1 -E0"/>
    </vehicle>
    <vehicle id="W_car.34" type="car" depart="177.62">
        <route edges="E0 E2"/>
    </vehicle>
    <vehicle id="S_car.31" type="car" depart="177.97">
        <route edges="-E2 -E0"/>
    </vehicle>
    <vehicle id="N_car.28" type="car" depart="179.03">
        <route edges="-E3 E1"/>
    </vehicle>
    <vehicle id="E_car.38" type="car" depart="181.41">
        <route edges="-E1 E2"/>
    </vehicle>
    <vehicle id="W_car.35" type="car" depart="182.84">
        <route edges="E0 E2"/>
    </vehicle>
    <vehicle id="S_car.32" type="car" depart="183.71">
        <route edges="-E2 E3"/>
    </vehicle>
    <vehicle id="N_car.29" type="car" depart="185.43">
        <route edges="-E3 -E0"/>
    </vehicle>
    <vehicle id="E_car.39" type="car" depart="186.19">
        <route edges="-E1 E3"/>
    </vehicle>
    <vehicle id="W_car.36" type="car" depart="188.06">
        <route edges="E0 E2"/>
    </vehicle>
    <vehicle id="S_car.33" type="car" depart="189.45">
        <route edges="-E2 E3"/>
    </vehicle>
    <vehicle id="E_car.40" type="car" depart="190.96">
        <route edges="-E1 E3"/>
    </vehicle>
    <vehicle id="N_car.30" type="car" depart="191.82">
        <route edges="-E3 E1"/>
    </vehicle>
    <vehicle id="W_car.37" type="car" depart="193.29">
        <route edges="E0 E1"/>
    </vehicle>
    <vehicle id="S_car.34" type="car" depart="195.19">
        <route edges="-E2 E3"/>
    </vehicle>
    <vehicle id="E_car.41" type="car" depart="195.73">
        <route edges="-E1 E3"/>
    </vehicle>
    <vehicle id="N_car.31" type="car" depart="198.21">
        <route edges="-E3 E1"/>
    </vehicle>
    <vehicle id="W_car.38" type="car" depart="198.51">
        <route edges="E0 E3"/>
    </vehicle>
    <vehicle id="E_car.42" type="car" depart="200.51">
        <route edges="-E1 -E0"/>
    </vehicle>
    <vehicle id="S_car.35" type="car" depart="200.94">
        <route edges="-E2 E1"/>
    </vehicle>
    <vehicle id="W_car.39" type="car" depart="203.74">
        <route edges="E0 E3"/>
    </vehicle>
    <vehicle id="N_car.32" type="car" depart="204.61">
        <route edges="-E3 E1"/>
    </vehicle>
    <vehicle id="E_car.43" type="car" depart="205.28">
        <route edges="-E1 -E0"/>
    </vehicle>
    <vehicle id="S_car.36" type="car" depart="206.68">
        <route edges="-E2 -E0"/>
    </vehicle>
    <vehicle id="W_car.40" type="car" depart="208.96">
        <route edges="E0 E2"/>
    </vehicle>
    <vehicle id="E_car.44" type="car" depart="210.06">
        <route edges="-E1 E3"/>
    </vehicle>
    <vehicle id="N_car.33" type="car" depart="211.00">
        <route edges="-E3 -E0"/>
    </vehicle>
    <vehicle id="S_car.37" type="car" depart="212.42">
        <route edges="-E2 E1"/>
    </vehicle>
    <vehicle id="W_car.41" type="car" depart="214.18">
        <route edges="E0 E3"/>
    </vehicle>
    <vehicle id="E_car.45" type="car" depart="214.83">
        <route edges="-E1 -E0"/>
    </vehicle>
    <vehicle id="N_car.34" type="car" depart="217.40">
        <route edges="-E3 -E0"/>
    </vehicle>
    <vehicle id="S_car.38" type="car" depart="218.16">
        <route edges="-E2 E3"/>
    </vehicle>
    <vehicle id="W_car.42" type="car" depart="219.41">
        <route edges="E0 E3"/>
    </vehicle>
    <vehicle id="E_car.46" type="car" depart="219.60">
        <route edges="-E1 -E0"/>
    </vehicle>
    <vehicle id="N_car.35" type="car" depart="223.79">
        <route edges="-E3 E2"/>
    </vehicle>
    <vehicle id="S_car.39" type="car" depart="223.90">
        <route edges="-E2 E1"/>
    </vehicle>
    <vehicle id="E_car.47" type="car" depart="224.38">
        <route edges="-E1 E3"/>
    </vehicle>
    <vehicle id="W_car.43" type="car" depart="224.63">
        <route edges="E0 E3"/>
    </vehicle>
    <vehicle id="E_car.48" type="car" depart="229.15">
        <route edges="-E1 E2"/>
    </vehicle>
    <vehicle id="S_car.40" type="car" depart="229.64">
        <route edges="-E2 E3"/>
    </vehicle>
    <vehicle id="W_car.44" type="car" depart="229.86">
        <route edges="E0 E1"/>
    </vehicle>
    <vehicle id="N_car.36" type="car" depart="230.18">
        <route edges="-E3 E1"/>
    </vehicle>
    <vehicle id="E_car.49" type="car" depart="233.93">
        <route edges="-E1 -E0"/>
    </vehicle>
    <vehicle id="W_car.45" type="car" depart="235.08">
        <route edges="E0 E1"/>
    </vehicle>
    <vehicle id="S_car.41" type="car" depart="235.38">
        <route edges="-E2 E1"/>
    </vehicle>
    <vehicle id="N_car.37" type="car" depart="236.58">
        <route edges="-E3 E2"/>
    </vehicle>
    <vehicle id="E_car.50" type="car" depart="238.70">
        <route edges="-E1 -E0"/>
    </vehicle>
    <vehicle id="W_car.46" type="car" depart="240.30">
        <route edges="E0 E1"/>
    </vehicle>
    <vehicle id="S_car.42" type="car" depart="241.12">
        <route edges="-E2 E3"/>
    </vehicle>
    <vehicle id="N_car.38" type="car" depart="242.97">
        <route edges="-E3 -E0"/>
    </vehicle>
    <vehicle id="E_car.51" type="car" depart="243.47">
        <route edges="-E1 E2"/>
    </vehicle>
    <vehicle id="W_car.47" type="car" depart="245.53">
        <route edges="E0 E1"/>
    </vehicle>
    <vehicle id="S_car.43" type="car" depart="246.86">
        <route edges="-E2 E3"/>
    </vehicle>
    <vehicle id="E_car.52" type="car" depart="248.25">
        <route edges="-E1 -E0"/>
    </vehicle>
    <vehicle id="N_car.39" type="car" depart="249.37">
        <route edges="-E3 -E0"/>
    </vehicle>
    <vehicle id="W_car.48" type="car" depart="250.75">
        <route edges="E0 E1"/>
    </vehicle>
    <vehicle id="S_car.44" type="car" depart="252.60">
        <route edges="-E2 -E0"/>
    </vehicle>
    <vehicle id="E_car.53" type="car" depart="253.02">
        <route edges="-E1 -E0"/>
    </vehicle>
    <vehicle id="N_car.40" type="car" depart="255.76">
        <route edges="-E3 E2"/>
    </vehicle>
    <vehicle id="W_car.49" type="car" depart="255.98">
        <route edges="E0 E1"/>
    </vehicle>
    <vehicle id="E_car.54" type="car" depart="257.80">
        <route edges="-E1 -E0"/>
    </vehicle>
    <vehicle id="S_car.45" type="car" depart="258.35">
        <route edges="-E2 E3"/>
    </vehicle>
    <vehicle id="W_car.50" type="car" depart="261.20">
        <route edges="E0 E2"/>
    </vehicle>
    <vehicle id="N_car.41" type="car" depart="262.15">
        <route edges="-E3 E1"/>
    </vehicle>
    <vehicle id="E_car.55" type="car" depart="262.57">
        <route edges="-E1 -E0"/>
    </vehicle>
    <vehicle id="S_car.46" type="car" depart="264.09">
        <route edges="-E2 E3"/>
    </vehicle>
    <vehicle id="W_car.51" type="car" depart="266.42">
        <route edges="E0 E1"/>
    </vehicle>
    <vehicle id="E_car.56" type="car" depart="267.34">
        <route edges="-E1 E3"/>
    </vehicle>
    <vehicle id="N_car.42" type="car" depart="268.55">
        <route edges="-E3 E2"/>
    </vehicle>
    <vehicle id="S_car.47" type="car" depart="269.83">
        <route edges="-E2 E3"/>
    </vehicle>
    <vehicle id="W_car.52" type="car" depart="271.65">
        <route edges="E0 E1"/>
    </vehicle>
    <vehicle id="E_car.57" type="car" depart="272.12">
        <route edges="-E1 -E0"/>
    </vehicle>
    <vehicle id="N_car.43" type="car" depart="274.94">
        <route edges="-E3 E2"/>
    </vehicle>
    <vehicle id="S_car.48" type="car" depart="275.57">
        <route edges="-E2 -E0"/>
    </vehicle>
    <vehicle id="W_car.53" type="car" depart="276.87">
        <route edges="E0 E3"/>
    </vehicle>
    <vehicle id="E_car.58" type="car" depart="276.89">
        <route edges="-E1 E3"/>
    </vehicle>
    <vehicle id="S_car.49" type="car" depart="281.31">
        <route edges="-E2 E3"/>
    </vehicle>
    <vehicle id="N_car.44" type="car" depart="281.34">
        <route edges="-E3 -E0"/>
    </vehicle>
    <vehicle id="E_car.59" type="car" depart="281.67">
        <route edges="-E1 E2"/>
    </vehicle>
    <vehicle id="W_car.54" type="car" depart="282.10">
        <route edges="E0 E1"/>
    </vehicle>
    <vehicle id="E_car.60" type="car" depart="286.44">
        <route edges="-E1 E2"/>
    </vehicle>
    <vehicle id="S_car.50" type="car" depart="287.05">
        <route edges="-E2 -E0"/>
    </vehicle>
    <vehicle id="W_car.55" type="car" depart="287.32">
        <route edges="E0 E1"/>
    </vehicle>
    <vehicle id="N_car.45" type="car" depart="287.73">
        <route edges="-E3 E2"/>
    </vehicle>
    <vehicle id="E_car.61" type="car" depart="291.21">
        <route edges="-E1 E3"/>
    </vehicle>
    <vehicle id="W_car.56" type="car" depart="292.54">
        <route edges="E0 E2"/>
    </vehicle>
    <vehicle id="S_car.51" type="car" depart="292.79">
        <route edges="-E2 -E0"/>
    </vehicle>
    <vehicle id="N_car.46" type="car" depart="294.12">
        <route edges="-E3 E2"/>
    </vehicle>
    <vehicle id="E_car.62" type="car" depart="295.99">
        <route edges="-E1 -E0"/>
    </vehicle>
    <vehicle id="W_car.57" type="car" depart="297.77">
        <route edges="E0 E1"/>
    </vehicle>
    <vehicle id="S_car.52" type="car" depart="298.53">
        <route edges="-E2 E3"/>
    </vehicle>
    <vehicle id="N_car.47" type="car" depart="300.52">
        <route edges="-E3 -E0"/>
    </vehicle>
    <vehicle id="E_car.63" type="car" depart="300.76">
        <route edges="-E1 E2"/>
    </vehicle>
    <vehicle id="W_car.58" type="car" depart="302.99">
        <route edges="E0 E1"/>
    </vehicle>
    <vehicle id="S_car.53" type="car" depart="304.27">
        <route edges="-E2 E3"/>
    </vehicle>
    <vehicle id="E_car.64" type="car" depart="305.54">
        <route edges="-E1 E3"/>
    </vehicle>
    <vehicle id="N_car.48" type="car" depart="306.91">
        <route edges="-E3 E2"/>
    </vehicle>
    <vehicle id="W_car.59" type="car" depart="308.22">
        <route edges="E0 E1"/>
    </vehicle>
    <vehicle id="S_car.54" type="car" depart="310.01">
        <route edges="-E2 E3"/>
    </vehicle>
    <vehicle id="E_car.65" type="car" depart="310.31">
        <route edges="-E1 -E0"/>
    </vehicle>
    <vehicle id="N_car.49" type="car" depart="313.31">
        <route edges="-E3 E1"/>
    </vehicle>
    <vehicle id="W_car.60" type="car" depart="313.44">
        <route edges="E0 E1"/>
    </vehicle>
    <vehicle id="E_car.66" type="car" depart="315.08">
        <route edges="-E1 -E0"/>
    </vehicle>
    <vehicle id="S_car.55" type="car" depart="315.76">
        <route edges="-E2 E1"/>
    </vehicle>
    <vehicle id="W_car.61" type="car" depart="318.66">
        <route edges="E0 E1"/>
    </vehicle>
    <vehicle id="N_car.50" type="car" depart="319.70">
        <route edges="-E3 E2"/>
    </vehicle>
    <vehicle id="E_car.67" type="car" depart="319.86">
        <route edges="-E1 E3"/>
    </vehicle>
    <vehicle id="S_car.56" type="car" depart="321.50">
        <route edges="-E2 -E0"/>
    </vehicle>
    <vehicle id="W_car.62" type="car" depart="323.89">
        <route edges="E0 E3"/>
    </vehicle>
    <vehicle id="E_car.68" type="car" depart="324.63">
        <route edges="-E1 -E0"/>
    </vehicle>
    <vehicle id="N_car.51" type="car" depart="326.09">
        <route edges="-E3 -E0"/>
    </vehicle>
    <vehicle id="S_car.57" type="car" depart="327.24">
        <route edges="-E2 -E0"/>
    </vehicle>
    <vehicle id="W_car.63" type="car" depart="329.11">
        <route edges="E0 E2"/>
    </vehicle>
    <vehicle id="E_car.69" type="car" depart="329.41">
        <route edges="-E1 -E0"/>
    </vehicle>
    <vehicle id="N_car.52" type="car" depart="332.49">
        <route edges="-E3 -E0"/>
    </vehicle>
    <vehicle id="S_car.58" type="car" depart="332.98">
        <route edges="-E2 -E0"/>
    </vehicle>
    <vehicle id="E_car.70" type="car" depart="334.18">
        <route edges="-E1 E3"/>
    </vehicle>
    <vehicle id="W_car.64" type="car" depart="334.34">
        <route edges="E0 E1"/>
    </vehicle>
    <vehicle id="S_car.59" type="car" depart="338.72">
        <route edges="-E2 E1"/>
    </vehicle>
    <vehicle id="N_car.53" type="car" depart="338.88">
        <route edges="-E3 E1"/>
    </vehicle>
    <vehicle id="E_car.71" type="car" depart="338.95">
        <route edges="-E1 -E0"/>
    </vehicle>
    <vehicle id="W_car.65" type="car" depart="339.56">
        <route edges="E0 E3"/>
    </vehicle>
    <vehicle id="E_car.72" type="car" depart="343.73">
        <route edges="-E1 E2"/>
    </vehicle>
    <vehicle id="S_car.60" type="car" depart="344.46">
        <route edges="-E2 E3"/>
    </vehicle>
    <vehicle id="W_car.66" type="car" depart="344.78">
        <route edges="E0 E2"/>
    </vehicle>
    <vehicle id="N_car.54" type="car" depart="345.28">
        <route edges="-E3 E1"/>
    </vehicle>
    <vehicle id="E_car.73" type="car" depart="348.50">
        <route edges="-E1 E2"/>
    </vehicle>
    <vehicle id="W_car.67" type="car" depart="350.01">
        <route edges="E0 E3"/>
    </vehicle>
    <vehicle id="S_car.61" type="car" depart="350.20">
        <route edges="-E2 E1"/>
    </vehicle>
    <vehicle id="N_car.55" type="car" depart="351.67">
        <route edges="-E3 E1"/>
    </vehicle>
    <vehicle id="E_car.74" type="car" depart="353.28">
        <route edges="-E1 -E0"/>
    </vehicle>
    <vehicle id="W_car.68" type="car" depart="355.23">
        <route edges="E0 E3"/>
    </vehicle>
    <vehicle id="S_car.62" type="car" depart="355.94">
        <route edges="-E2 -E0"/>
    </vehicle>
    <vehicle id="E_car.75" type="car" depart="358.05">
        <route edges="-E1 -E0"/>
    </vehicle>
    <vehicle id="N_car.56" type="car" depart="358.06">
        <route edges="-E3 E1"/>
    </vehicle>
    <vehicle id="W_car.69" type="car" depart="360.46">
        <route edges="E0 E1"/>
    </vehicle>
    <vehicle id="S_car.63" type="car" depart="361.68">
        <route edges="-E2 E3"/>
    </vehicle>
    <vehicle id="E_car.76" type="car" depart="362.82">
        <route edges="-E1 -E0"/>
    </vehicle>
    <vehicle id="N_car.57" type="car" depart="364.46">
        <route edges="-E3 E2"/>
    </vehicle>
    <vehicle id="W_car.70" type="car" depart="365.68">
        <route edges="E0 E3"/>
    </vehicle>
    <vehicle id="S_car.64" type="car" depart="367.42">
        <route edges="-E2 E3"/>
    </vehicle>
    <vehicle id="E_car.77" type="car" depart="367.60">
        <route edges="-E1 -E0"/>
    </vehicle>
    <vehicle id="N_car.58" type="car" depart="370.85">
        <route edges="-E3 E2"/>
    </vehicle>
    <vehicle id="W_car.71" type="car" depart="370.90">
        <route edges="E0 E3"/>
    </vehicle>
    <vehicle id="E_car.78" type="car" depart="372.37">
        <route edges="-E1 -E0"/>
    </vehicle>
    <vehicle id="S_car.65" type="car" depart="373.17">
        <route edges="-E2 E1"/>
    </vehicle>
    <vehicle id="W_car.72" type="car" depart="376.13">
        <route edges="E0 E3"/>
    </vehicle>
    <vehicle id="E_car.79" type="car" depart="377.15">
        <route edges="-E1 E3"/>
    </vehicle>
    <vehicle id="N_car.59" type="car" depart="377.25">
        <route edges="-E3 E2"/>
    </vehicle>
    <vehicle id="S_car.66" type="car" depart="378.91">
        <route edges="-E2 E3"/>
    </vehicle>
    <vehicle id="W_car.73" type="car" depart="381.35">
        <route edges="E0 E1"/>
    </vehicle>
    <vehicle id="E_car.80" type="car" depart="381.92">
        <route edges="-E1 E2"/>
    </vehicle>
    <vehicle id="N_car.60" type="car" depart="383.64">
        <route edges="-E3 E1"/>
    </vehicle>
    <vehicle id="S_car.67" type="car" depart="384.65">
        <route edges="-E2 E1"/>
    </vehicle>
    <vehicle id="W_car.74" type="car" depart="386.58">
        <route edges="E0 E1"/>
    </vehicle>
    <vehicle id="E_car.81" type="car" depart="386.69">
        <route edges="-E1 E2"/>
    </vehicle>