<?xml version="1.0" encoding="UTF-8"?>

<!-- generated on 2026-05-23 15:59:46 by Eclipse SUMO netedit Version 1.23.1
<neteditConfiguration xmlns:xsi="http://www.w3.org/2001/XMLSchema-instance" xsi:noNamespaceSchemaLocation="http://sumo.dlr.de/xsd/neteditConfiguration.xsd">

    <input>
        <sumo-net-file value="C:\Users\dell\Desktop\明朗北街与秋朗东路交叉口\sumo工程\demo_19.net.xml"/>
    </input>

    <output>
        <output-file value="C:\Users\dell\Desktop\明朗北街与秋朗东路交叉口\sumo工程\demo_19.net.xml"/>
    </output>

    <processing>
        <geometry.min-radius.fix.railways value="false"/>
        <geometry.avoid-overlap value="false"/>
        <geometry.max-grade.fix value="false"/>
        <offset.disable-normalization value="true"/>
        <lefthand value="0"/>
    </processing>

    <junctions>
        <no-turnarounds value="true"/>
        <junctions.corner-detail value="5"/>
        <junctions.limit-turn-speed value="5.50"/>
        <rectangular-lane-cut value="0"/>
    </junctions>

    <pedestrian>
        <walkingareas value="0"/>
    </pedestrian>

</neteditConfiguration>
-->

<net version="1.20" junctionCornerDetail="5" limitTurnSpeed="5.50" avoidOverlap="0" xmlns:xsi="http://www.w3.org/2001/XMLSchema-instance" xsi:noNamespaceSchemaLocation="http://sumo.dlr.de/xsd/net_file.xsd">

    <location netOffset="0.00,0.00" convBoundary="-17.18,-24.25,180.55,138.32" origBoundary="-10000000000.00,-10000000000.00,10000000000.00,10000000000.00" projParameter="!"/>

    <edge id=":J1_0" function="internal">
        <lane id=":J1_0_0" index="0" speed="7.38" length="10.70" shape="87.83,68.71 85.37,68.80 83.31,69.87 81.67,71.93 80.44,74.97"/>
    </edge>
    <edge id=":J1_1" function="internal">
        <lane id=":J1_1_0" index="0" speed="13.89" length="21.06" shape="87.83,68.71 67.01,65.95"/>
        <lane id=":J1_1_1" index="1" speed="13.89" length="21.06" shape="88.32,65.54 67.39,62.77"/>
    </edge>
    <edge id=":J1_3" function="internal">
        <lane id=":J1_3_0" index="0" speed="9.06" length="4.02" shape="88.32,65.54 84.47,64.35"/>
    </edge>
    <edge id=":J1_15" function="internal">
        <lane id=":J1_15_0" index="0" speed="9.06" length="14.69" shape="84.47,64.35 83.58,64.07 80.48,61.32 79.02,57.29 79.19,51.97"/>
    </edge>
    <edge id=":J1_4" function="internal">
        <lane id=":J1_4_0" index="0" speed="7.08" length="10.98" shape="82.33,52.50 82.42,55.00 83.61,56.96 85.89,58.37 89.28,59.25"/>
    </edge>
    <edge id=":J1_5" function="internal">
        <lane id=":J1_5_0" index="0" speed="13.89" length="22.39" shape="82.33,52.50 82.08,56.74 82.12,61.98 81.80,68.10 80.44,74.97"/>
        <lane id=":J1_5_1" index="1" speed="13.89" length="22.39" shape="82.33,52.50 81.60,56.60 80.59,61.54 79.20,67.35 77.37,74.08"/>
    </edge>
    <edge id=":J1_7" function="internal">
        <lane id=":J1_7_0" index="0" speed="9.67" length="5.04" shape="82.33,52.50 80.76,57.29"/>
    </edge>
    <edge id=":J1_16" function="internal">
        <lane id=":J1_16_0" index="0" speed="9.67" length="15.42" shape="80.76,57.29 80.66,57.57 77.62,60.97 73.19,62.71 67.39,62.77"/>
    </edge>
    <edge id=":J1_8" function="internal">
        <lane id=":J1_8_0" index="0" speed="7.88" length="13.19" shape="68.14,56.47 72.62,56.62 75.96,55.92 78.15,54.37 79.19,51.97"/>
    </edge>
    <edge id=":J1_9" function="internal">
        <lane id=":J1_9_0" index="0" speed="13.89" length="21.27" shape="68.14,56.47 89.28,59.25"/>
        <lane id=":J1_9_1" index="1" speed="13.89" length="21.27" shape="67.76,59.64 88.80,62.41"/>
    </edge>
    <edge id=":J1_11" function="internal">
        <lane id=":J1_11_0" index="0" speed="9.01" length="5.25" shape="67.76,59.64 72.84,60.98"/>
    </edge>
    <edge id=":J1_17" function="internal">
        <lane id=":J1_17_0" index="0" speed="9.01" length="15.39" shape="72.84,60.98 73.37,61.12 76.84,64.01 78.17,68.33 77.37,74.08"/>
    </edge>
    <edge id=":J1_12" function="internal">
        <lane id=":J1_12_0" index="0" speed="6.18" length="9.05" shape="71.22,72.30 71.57,69.78 70.99,67.88 69.47,66.61 67.01,65.95"/>
    </edge>
    <edge id=":J1_13" function="internal">
        <lane id=":J1_13_0" index="0" speed="13.89" length="21.78" shape="74.29,73.19 76.12,66.52 77.48,60.83 78.47,56.02 79.19,51.97"/>
    </edge>
    <edge id=":J1_14" function="internal">
        <lane id=":J1_14_0" index="0" speed="9.90" length="5.29" shape="74.29,73.19 76.36,68.31"/>
    </edge>
    <edge id=":J1_18" function="internal">
        <lane id=":J1_18_0" index="0" speed="9.90" length="14.74" shape="76.36,68.31 76.55,67.85 79.72,64.27 83.80,62.46 88.80,62.41"/>
    </edge>
    <edge id=":J5_0" function="internal">
        <lane id=":J5_0_0" index="0" speed="13.89" length="0.30" shape="87.58,20.57 87.53,20.86"/>
    </edge>
    <edge id=":J6_0" function="internal">
        <lane id=":J6_0_0" index="0" speed="13.89" length="0.30" shape="29.44,52.06 29.71,52.09"/>
        <lane id=":J6_0_1" index="1" speed="13.89" length="0.30" shape="29.04,55.23 29.35,55.27"/>
    </edge>
    <edge id=":J7_0" function="internal">
        <lane id=":J7_0_0" index="0" speed="13.89" length="0.30" shape="140.80,76.62 140.52,76.57"/>
        <lane id=":J7_0_1" index="1" speed="13.89" length="0.30" shape="141.30,73.46 140.99,73.41"/>
    </edge>

    <edge id="-E0" from="J1" to="J0" priority="-1">
        <lane id="-E0_0" index="0" speed="13.89" length="85.35" shape="67.01,65.95 -17.74,55.92"/>
        <lane id="-E0_1" index="1" speed="13.89" length="85.35" shape="67.39,62.77 -17.37,52.74"/>
    </edge>
    <edge id="-E1" from="J2" to="J7" priority="-1">
        <lane id="-E1_0" index="0" speed="13.89" length="39.48" shape="179.80,82.77 140.80,76.62"/>
        <lane id="-E1_1" index="1" speed="13.89" length="39.48" shape="180.30,79.61 141.30,73.46"/>
    </edge>
    <edge id="-E1.42" from="J7" to="J1" priority="-1">
        <lane id="-E1.42_0" index="0" speed="13.89" length="53.27" shape="140.52,76.57 87.83,68.71"/>
        <lane id="-E1.42_1" index="1" speed="13.89" length="53.27" shape="140.99,73.41 88.32,65.54"/>
    </edge>
    <edge id="-E2" from="J3" to="J5" priority="-1">
        <lane id="-E2_0" index="0" speed="13.89" length="45.18" shape="95.10,-23.98 87.58,20.57"/>
    </edge>
    <edge id="-E2.41" from="J5" to="J1" priority="-1">
        <lane id="-E2.41_0" index="0" speed="13.89" length="32.06" shape="87.53,20.86 82.33,52.50"/>
    </edge>
    <edge id="-E3" from="J4" to="J1" priority="-1">
        <lane id="-E3_0" index="0" speed="13.89" length="67.36" shape="52.44,136.98 71.22,72.30"/>
        <lane id="-E3_1" index="1" speed="13.89" length="67.36" shape="55.51,137.87 74.29,73.19"/>
    </edge>
    <edge id="E0" from="J0" to="J6" priority="-1" length="33.78">
        <lane id="E0_0" index="0" speed="13.89" length="33.78" shape="-16.59,46.39 29.44,52.06"/>
        <lane id="E0_1" index="1" speed="13.89" length="33.78" shape="-16.98,49.56 29.04,55.23"/>
    </edge>
    <edge id="E0.40" from="J6" to="J1" priority="-1" length="45.60">
        <lane id="E0.40_0" index="0" speed="13.89" length="45.60" shape="29.71,52.09 68.14,56.47"/>
        <lane id="E0.40_1" index="1" speed="13.89" length="45.60" shape="29.35,55.27 67.76,59.64"/>
    </edge>
    <edge id="E1" from="J1" to="J2" priority="-1">
        <lane id="E1_0" index="0" speed="13.89" length="93.06" shape="89.28,59.25 181.27,73.28"/>
        <lane id="E1_1" index="1" speed="13.89" length="93.06" shape="88.80,62.41 180.79,76.45"/>
    </edge>
    <edge id="E2" from="J1" to="J3" priority="-1">
        <lane id="E2_0" index="0" speed="13.89" length="77.54" shape="79.19,51.97 91.94,-24.51"/>
    </edge>
    <edge id="E3" from="J1" to="J4" priority="-1">
        <lane id="E3_0" index="0" speed="13.89" length="67.36" shape="80.44,74.97 61.66,139.66"/>
        <lane id="E3_1" index="1" speed="13.89" length="67.36" shape="77.37,74.08 58.59,138.77"/>
    </edge>

    <tlLogic id="J1" type="static" programID="0" offset="0">
        <phase duration="35" state="GGGgrrrrGGGgrrr"/>
        <phase duration="3"  state="yyyyrrrryyyyrrr"/>
        <phase duration="35" state="rrrrGGGgrrrrGGg"/>
        <phase duration="3"  state="rrrryyyyrrrryyy"/>
    </tlLogic>

    <junction id="J0" type="dead_end" x="-17.18" y="51.15" incLanes="-E0_0 -E0_1" intLanes="" shape="-17.18,51.15 -16.40,44.80 -17.93,57.51"/>
    <junction id="J1" type="traffic_light" x="79.05" y="62.54" incLanes="-E1.42_0 -E1.42_1 -E2.41_0 E0.40_0 E0.40_1 -E3_0 -E3_1" intLanes=":J1_0_0 :J1_1_0 :J1_1_1 :J1_15_0 :J1_4_0 :J1_5_0 :J1_5_1 :J1_16_0 :J1_8_0 :J1_9_0 :J1_9_1 :J1_17_0 :J1_12_0 :J1_13_0 :J1_18_0" shape="87.59,70.29 89.52,57.66 86.11,56.69 84.98,55.96 84.24,55.06 83.88,53.99 83.90,52.76 77.61,51.71 76.27,53.91 74.94,54.58 73.18,54.96 70.97,55.06 68.32,54.88 66.83,67.54 68.91,68.23 69.53,68.85 69.86,69.66 69.91,70.66 69.68,71.85 81.98,75.42 83.34,72.30 84.21,71.27 85.21,70.59 86.34,70.27">
        <request index="0"  response="000000000000000" foes="000000001100000" cont="0"/>
        <request index="1"  response="100000010000000" foes="111100011100000" cont="0"/>
        <request index="2"  response="100000010000000" foes="111100011100000" cont="0"/>
        <request index="3"  response="100011110000000" foes="110011111100000" cont="1"/>
        <request index="4"  response="000011000000000" foes="000011000000000" cont="0"/>
        <request index="5"  response="000111000001111" foes="100111000001111" cont="0"/>
        <request index="6"  response="000111000001111" foes="100111000001111" cont="0"/>
        <request index="7"  response="010111000001110" foes="010111000001110" cont="1"/>
        <request index="8"  response="000000000000000" foes="010000000001000" cont="0"/>
        <request index="9"  response="100000010000000" foes="110000011111000" cont="0"/>
        <request index="10" response="100000010000000" foes="110000011111000" cont="0"/>
        <request index="11" response="100000010000110" foes="110000011100110" cont="1"/>
        <request index="12" response="000000000000110" foes="000000000000110" cont="0"/>
        <request index="13" response="000111100001110" foes="000111110001110" cont="0"/>
        <request index="14" response="000111001101110" foes="000111001101110" cont="1"/>
    </junction>
    <junction id="J2" type="dead_end" x="180.55" y="78.03" incLanes="E1_0 E1_1" intLanes="" shape="180.55,78.03 179.55,84.35 181.52,71.70"/>
    <junction id="J3" type="dead_end" x="93.52" y="-24.25" incLanes="E2_0" intLanes="" shape="93.52,-24.25 96.68,-23.72 90.36,-24.78"/>
    <junction id="J4" type="dead_end" x="57.05" y="138.32" incLanes="E3_0 E3_1" intLanes="" shape="57.05,138.32 63.20,140.10 57.05,138.32"/>
    <junction id="J5" type="priority" x="85.98" y="20.45" incLanes="-E2_0" intLanes=":J5_0_0" shape="89.16,20.83 86.01,20.30 85.96,20.60 89.11,21.12">
        <request index="0" response="0" foes="0" cont="0"/>
    </junction>
    <junction id="J6" type="priority" x="29.01" y="56.84" incLanes="E0_0 E0_1" intLanes=":J6_0_0 :J6_0_1" shape="29.17,56.86 29.90,50.50 29.63,50.47 28.85,56.82">
        <request index="0" response="00" foes="00" cont="0"/>
        <request index="1" response="00" foes="00" cont="0"/>
    </junction>
    <junction id="J7" type="priority" x="141.39" y="71.85" incLanes="-E1_0 -E1_1" intLanes=":J7_0_0 :J7_0_1" shape="140.55,78.20 141.55,71.88 141.23,71.83 140.28,78.16">
        <request index="0" response="00" foes="00" cont="0"/>
        <request index="1" response="00" foes="00" cont="0"/>
    </junction>

    <junction id=":J1_15_0" type="internal" x="84.47" y="64.35" incLanes=":J1_3_0 E0.40_0 E0.40_1" intLanes=":J1_5_0 :J1_5_1 :J1_7_0 :J1_8_0 :J1_9_0 :J1_9_1 :J1_13_0 :J1_14_0"/>
    <junction id=":J1_16_0" type="internal" x="80.76" y="57.29" incLanes=":J1_7_0 -E3_0 -E3_1" intLanes=":J1_1_0 :J1_1_1 :J1_3_0 :J1_9_0 :J1_9_1 :J1_11_0 :J1_12_0 :J1_13_0"/>
    <junction id=":J1_17_0" type="internal" x="72.84" y="60.98" incLanes=":J1_11_0 -E1.42_0 -E1.42_1" intLanes=":J1_0_0 :J1_1_0 :J1_1_1 :J1_5_0 :J1_5_1 :J1_7_0 :J1_13_0 :J1_14_0"/>
    <junction id=":J1_18_0" type="internal" x="76.36" y="68.31" incLanes=":J1_14_0 -E2.41_0" intLanes=":J1_1_0 :J1_1_1 :J1_3_0 :J1_4_0 :J1_5_0 :J1_5_1 :J1_9_0 :J1_9_1 :J1_11_0"/>

    <connection from="-E1" to="-E1.42" fromLane="0" toLane="0" via=":J7_0_0" dir="s" state="M"/>
    <connection from="-E1" to="-E1.42" fromLane="1" toLane="1" via=":J7_0_1" dir="s" state="M"/>
    <connection from="-E1.42" to="E3" fromLane="0" toLane="0" via=":J1_0_0" tl="J1" linkIndex="0" dir="r" state="O"/>
    <connection from="-E1.42" to="-E0" fromLane="0" toLane="0" via=":J1_1_0" tl="J1" linkIndex="1" dir="s" state="O"/>
    <connection from="-E1.42" to="-E0" fromLane="1" toLane="1" via=":J1_1_1" tl="J1" linkIndex="2" dir="s" state="O"/>
    <connection from="-E1.42" to="E2" fromLane="1" toLane="0" via=":J1_3_0" tl="J1" linkIndex="3" dir="l" state="o"/>
    <connection from="-E2" to="-E2.41" fromLane="0" toLane="0" via=":J5_0_0" dir="s" state="M"/>
    <connection from="-E2.41" to="E1" fromLane="0" toLane="0" via=":J1_4_0" tl="J1" linkIndex="4" dir="r" state="o"/>
    <connection from="-E2.41" to="E3" fromLane="0" toLane="0" via=":J1_5_0" tl="J1" linkIndex="5" dir="s" state="o"/>
    <connection from="-E2.41" to="E3" fromLane="0" toLane="1" via=":J1_5_1" tl="J1" linkIndex="6" dir="s" state="o"/>
    <connection from="-E2.41" to="-E0" fromLane="0" toLane="1" via=":J1_7_0" tl="J1" linkIndex="7" dir="l" state="o"/>
    <connection from="-E3" to="-E0" fromLane="0" toLane="0" via=":J1_12_0" tl="J1" linkIndex="12" dir="r" state="o"/>
    <connection from="-E3" to="E2" fromLane="1" toLane="0" via=":J1_13_0" tl="J1" linkIndex="13" dir="s" state="o"/>
    <connection from="-E3" to="E1" fromLane="1" toLane="1" via=":J1_14_0" tl="J1" linkIndex="14" dir="l" state="o"/>
    <connection from="E0" to="E0.40" fromLane="0" toLane="0" via=":J6_0_0" dir="s" state="M"/>
    <connection from="E0" to="E0.40" fromLane="1" toLane="1" via=":J6_0_1" dir="s" state="M"/>
    <connection from="E0.40" to="E2" fromLane="0" toLane="0" via=":J1_8_0" tl="J1" linkIndex="8" dir="r" state="O"/>
    <connection from="E0.40" to="E1" fromLane="0" toLane="0" via=":J1_9_0" tl="J1" linkIndex="9" dir="s" state="O"/>
    <connection from="E0.40" to="E1" fromLane="1" toLane="1" via=":J1_9_1" tl="J1" linkIndex="10" dir="s" state="O"/>
    <connection from="E0.40" to="E3" fromLane="1" toLane="1" via=":J1_11_0" tl="J1" linkIndex="11" dir="l" state="o"/>

    <connection from=":J1_0" to="E3" fromLane="0" toLane="0" dir="r" state="M"/>
    <connection from=":J1_1" to="-E0" fromLane="0" toLane="0" dir="s" state="M"/>
    <connection from=":J1_1" to="-E0" fromLane="1" toLane="1" dir="s" state="M"/>
    <connection from=":J1_3" to="E2" fromLane="0" toLane="0" via=":J1_15_0" dir="l" state="m"/>
    <connection from=":J1_15" to="E2" fromLane="0" toLane="0" dir="l" state="M"/>
    <connection from=":J1_4" to="E1" fromLane="0" toLane="0" dir="r" state="M"/>
    <connection from=":J1_5" to="E3" fromLane="0" toLane="0" dir="s" state="M"/>
    <connection from=":J1_5" to="E3" fromLane="1" toLane="1" dir="s" state="M"/>
    <connection from=":J1_7" to="-E0" fromLane="0" toLane="1" via=":J1_16_0" dir="l" state="m"/>
    <connection from=":J1_16" to="-E0" fromLane="0" toLane="1" dir="l" state="M"/>
    <connection from=":J1_8" to="E2" fromLane="0" toLane="0" dir="r" state="M"/>
    <connection from=":J1_9" to="E1" fromLane="0" toLane="0" dir="s" state="M"/>
    <connection from=":J1_9" to="E1" fromLane="1" toLane="1" dir="s" state="M"/>
    <connection from=":J1_11" to="E3" fromLane="0" toLane="1" via=":J1_17_0" dir="l" state="m"/>
    <connection from=":J1_17" to="E3" fromLane="0" toLane="1" dir="l" state="M"/>
    <connection from=":J1_12" to="-E0" fromLane="0" toLane="0" dir="r" state="M"/>
    <connection from=":J1_13" to="E2" fromLane="0" toLane="0" dir="s" state="M"/>
    <connection from=":J1_14" to="E1" fromLane="0" toLane="1" via=":J1_18_0" dir="l" state="m"/>
    <connection from=":J1_18" to="E1" fromLane="0" toLane="1" dir="l" state="M"/>
    <connection from=":J5_0" to="-E2.41" fromLane="0" toLane="0" dir="s" state="M"/>
    <connection from=":J6_0" to="E0.40" fromLane="0" toLane="0" dir="s" state="M"/>
    <connection from=":J6_0" to="E0.40" fromLane="1" toLane="1" dir="s" state="M"/>
    <connection from=":J7_0" to="-E1.42" fromLane="0" toLane="0" dir="s" state="M"/>
    <connection from=":J7_0" to="-E1.42" fromLane="1" toLane="1" dir="s" state="M"/>

</net>
