<?xml version="1.0" encoding="UTF-8"?>

<!-- generated on 2026-05-23 15:56:49 by Eclipse SUMO jtrrouter Version 1.23.1
<jtrrouterConfiguration xmlns:xsi="http://www.w3.org/2001/XMLSchema-instance" xsi:noNamespaceSchemaLocation="http://sumo.dlr.de/xsd/jtrrouterConfiguration.xsd">

    <input>
        <net-file value="demo_19.net.xml"/>
        <route-files value="demo_19.flow.xml"/>
        <turn-ratio-files value="demo_19.turn.xml"/>
    </input>

    <output>
        <output-file value="demo_19.rou.xml"/>
    </output>

    <time>
        <begin value="0"/>
        <end value="3600"/>
    </time>

</jtrrouterConfiguration>
-->

<routes xmlns:xsi="http://www.w3.org/2001/XMLSchema-instance" xsi:noNamespaceSchemaLocation="http://sumo.dlr.de/xsd/routes_file.xsd">
    <vType id="car" maxSpeed="37.00" vClass="passenger"/>
    <vehicle id="EW_car.0" type="car" depart="0.00">
        <route edges="-E1 -E1.42 E3"/>
    </vehicle>
    <vehicle id="NS_car.0" type="car" depart="0.00">
        <route edges="-E3 -E0"/>
    </vehicle>
    <vehicle id="SN_car.0" type="car" depart="0.00">
        <route edges="-E2 -E2.41 E1"/>
    </vehicle>
    <vehicle id="WE_car.0" type="car" depart="0.00">
        <route edges="E0 E0.40 E3"/>
    </vehicle>
    <vehicle id="EW_car.1" type="car" depart="7.84">
        <route edges="-E1 -E1.42 E2"/>
    </vehicle>
    <vehicle id="SN_car.1" type="car" depart="12.72">
        <route edges="-E2 -E2.41 -E0"/>
    </vehicle>
    <vehicle id="EW_car.2" type="car" depart="15.69">
        <route edges="-E1 -E1.42 E2"/>
    </vehicle>
    <vehicle id="WE_car.1" type="car" depart="17.56">
        <route edges="E0 E0.40 E2"/>
    </vehicle>
    <vehicle id="NS_car.1" type="car" depart="18.75">
        <route edges="-E3 -E0"/>
    </vehicle>
    <vehicle id="EW_car.3" type="car" depart="23.53">
        <route edges="-E1 -E1.42 E3"/>
    </vehicle>
    <vehicle id="SN_car.2" type="car" depart="25.44">
        <route edges="-E2 -E2.41 E3"/>
    </vehicle>
    <vehicle id="EW_car.4" type="car" depart="31.37">
        <route edges="-E1 -E1.42 E2"/>
    </vehicle>
    <vehicle id="WE_car.2" type="car" depart="35.12">
        <route edges="E0 E0.40 E2"/>
    </vehicle>
    <vehicle id="NS_car.2" type="car" depart="37.50">
        <route edges="-E3 E2"/>
    </vehicle>
    <vehicle id="SN_car.3" type="car" depart="38.16">
        <route edges="-E2 -E2.41 E3"/>
    </vehicle>
    <vehicle id="EW_car.5" type="car" depart="39.22">
        <route edges="-E1 -E1.42 E2"/>
    </vehicle>
    <vehicle id="EW_car.6" type="car" depart="47.06">
        <route edges="-E1 -E1.42 -E0"/>
    </vehicle>
    <vehicle id="SN_car.4" type="car" depart="50.88">
        <route edges="-E2 -E2.41 E3"/>
    </vehicle>
    <vehicle id="WE_car.3" type="car" depart="52.68">
        <route edges="E0 E0.40 E3"/>
    </vehicle>
    <vehicle id="EW_car.7" type="car" depart="54.90">
        <route edges="-E1 -E1.42 E2"/>
    </vehicle>
    <vehicle id="NS_car.3" type="car" depart="56.25">
        <route edges="-E3 E1"/>
    </vehicle>
    <vehicle id="EW_car.8" type="car" depart="62.74">
        <route edges="-E1 -E1.42 -E0"/>
    </vehicle>
    <vehicle id="SN_car.5" type="car" depart="63.60">
        <route edges="-E2 -E2.41 E3"/>
    </vehicle>
    <vehicle id="WE_car.4" type="car" depart="70.24">
        <route edges="E0 E0.40 E1"/>
    </vehicle>
    <vehicle id="EW_car.9" type="car" depart="70.59">
        <route edges="-E1 -E1.42 E2"/>
    </vehicle>
    <vehicle id="NS_car.4" type="car" depart="75.00">
        <route edges="-E3 -E0"/>
    </vehicle>
    <vehicle id="SN_car.6" type="car" depart="76.32">
        <route edges="-E2 -E2.41 -E0"/>
    </vehicle>
    <vehicle id="EW_car.10" type="car" depart="78.43">
        <route edges="-E1 -E1.42 E3"/>
    </vehicle>
    <vehicle id="EW_car.11" type="car" depart="86.27">
        <route edges="-E1 -E1.42 E2"/>
    </vehicle>
    <vehicle id="WE_car.5" type="car" depart="87.80">
        <route edges="E0 E0.40 E3"/>
    </vehicle>
    <vehicle id="SN_car.7" type="car" depart="89.04">
        <route edges="-E2 -E2.41 E1"/>
    </vehicle>
    <vehicle id="NS_car.5" type="car" depart="93.75">
        <route edges="-E3 E1"/>
    </vehicle>
    <vehicle id="EW_car.12" type="car" depart="94.12">
        <route edges="-E1 -E1.42 E3"/>
    </vehicle>
    <vehicle id="SN_car.8" type="car" depart="101.76">
        <route edges="-E2 -E2.41 E3"/>
    </vehicle>
    <vehicle id="EW_car.13" type="car" depart="101.96">
        <route edges="-E1 -E1.42 -E0"/>
    </vehicle>
    <vehicle id="WE_car.6" type="car" depart="105.36">
        <route edges="E0 E0.40 E2"/>
    </vehicle>
    <vehicle id="EW_car.14" type="car" depart="109.80">
        <route edges="-E1 -E1.42 -E0"/>
    </vehicle>
    <vehicle id="NS_car.6" type="car" depart="112.50">
        <route edges="-E3 -E0"/>
    </vehicle>
    <vehicle id="SN_car.9" type="car" depart="114.48">
        <route edges="-E2 -E2.41 E1"/>
    </vehicle>
    <vehicle id="EW_car.15" type="car" depart="117.65">
        <route edges="-E1 -E1.42 -E0"/>
    </vehicle>
    <vehicle id="WE_car.7" type="car" depart="122.92">
        <route edges="E0 E0.40 E1"/>
    </vehicle>
    <vehicle id="EW_car.16" type="car" depart="125.49">
        <route edges="-E1 -E1.42 -E0"/>
    </vehicle>
    <vehicle id="SN_car.10" type="car" depart="127.20">
        <route edges="-E2 -E2.41 E3"/>
    </vehicle>
    <vehicle id="NS_car.7" type="car" depart="131.25">
        <route edges="-E3 E1"/>
    </vehicle>
    <vehicle id="EW_car.17" type="car" depart="133.33">
        <route edges="-E1 -E1.42 -E0"/>
    </vehicle>
    <vehicle id="SN_car.11" type="car" depart="139.92">
        <route edges="-E2 -E2.41 E1"/>
    </vehicle>
    <vehicle id="WE_car.8" type="car" depart="140.48">
        <route edges="E0 E0.40 E1"/>
    </vehicle>
    <vehicle id="EW_car.18" type="car" depart="141.17">
        <route edges="-E1 -E1.42 E3"/>
    </vehicle>
    <vehicle id="EW_car.19" type="car" depart="149.02">
        <route edges="-E1 -E1.42 E2"/>
    </vehicle>
    <vehicle id="NS_car.8" type="car" depart="150.00">
        <route edges="-E3 E1"/>
    </vehicle>
    <vehicle id="SN_car.12" type="car" depart="152.64">
        <route edges="-E2 -E2.41 -E0"/>
    </vehicle>
    <vehicle id="EW_car.20" type="car" depart="156.86">
        <route edges="-E1 -E1.42 -E0"/>
    </vehicle>
    <vehicle id="WE_car.9" type="car" depart="158.04">
        <route edges="E0 E0.40 E2"/>
    </vehicle>
    <vehicle id="EW_car.21" type="car" depart="164.70">
        <route edges="-E1 -E1.42 E2"/>
    </vehicle>
    <vehicle id="SN_car.13" type="car" depart="165.36">
        <route edges="-E2 -E2.41 E3"/>
    </vehicle>
    <vehicle id="NS_car.9" type="car" depart="168.75">
        <route edges="-E3 E1"/>
    </vehicle>
    <vehicle id="EW_car.22" type="car" depart="172.55">
        <route edges="-E1 -E1.42 E2"/>
    </vehicle>
    <vehicle id="WE_car.10" type="car" depart="175.60">
        <route edges="E0 E0.40 E1"/>
    </vehicle>
    <vehicle id="SN_car.14" type="car" depart="178.08">
        <route edges="-E2 -E2.41 E1"/>
    </vehicle>
    <vehicle id="EW_car.23" type="car" depart="180.39">
        <route edges="-E1 -E1.42 -E0"/>
    </vehicle>
    <vehicle id="NS_car.10" type="car" depart="187.50">
        <route edges="-E3 E1"/>
    </vehicle>
    <vehicle id="EW_car.24" type="car" depart="188.23">
        <route edges="-E1 -E1.42 E3"/>
    </vehicle>
    <vehicle id="SN_car.15" type="car" depart="190.80">
        <route edges="-E2 -E2.41 E3"/>
    </vehicle>
    <vehicle id="WE_car.11" type="car" depart="193.16">
        <route edges="E0 E0.40 E3"/>
    </vehicle>
    <vehicle id="EW_car.25" type="car" depart="196.08">
        <route edges="-E1 -E1.42 E3"/>
    </vehicle>
    <vehicle id="SN_car.16" type="car" depart="203.52">
        <route edges="-E2 -E2.41 E1"/>
    </vehicle>
    <vehicle id="EW_car.26" type="car" depart="203.92">
        <route edges="-E1 -E1.42 -E0"/>
    </vehicle>
    <vehicle id="NS_car.11" type="car" depart="206.25">
        <route edges="-E3 E2"/>
    </vehicle>
    <vehicle id="WE_car.12" type="car" depart="210.72">
        <route edges="E0 E0.40 E3"/>
    </vehicle>
    <vehicle id="EW_car.27" type="car" depart="211.76">
        <route edges="-E1 -E1.42 E3"/>
    </vehicle>
    <vehicle id="SN_car.17" type="car" depart="216.24">
        <route edges="-E2 -E2.41 E3"/>
    </vehicle>
    <vehicle id="EW_car.28" type="car" depart="219.60">
        <route edges="-E1 -E1.42 E2"/>
    </vehicle>
    <vehicle id="NS_car.12" type="car" depart="225.00">
        <route edges="-E3 -E0"/>
    </vehicle>
    <vehicle id="EW_car.29" type="car" depart="227.45">
        <route edges="-E1 -E1.42 E2"/>
    </vehicle>
    <vehicle id="WE_car.13" type="car" depart="228.28">
        <route edges="E0 E0.40 E2"/>
    </vehicle>
    <vehicle id="SN_car.18" type="car" depart="228.96">
        <route edges="-E2 -E2.41 E3"/>
    </vehicle>
    <vehicle id="EW_car.30" type="car" depart="235.29">
        <route edges="-E1 -E1.42 E3"/>
    </vehicle>
    <vehicle id="SN_car.19" type="car" depart="241.68">
        <route edges="-E2 -E2.41 E1"/>
    </vehicle>
    <vehicle id="EW_car.31" type="car" depart="243.13">
        <route edges="-E1 -E1.42 E3"/>
    </vehicle>
    <vehicle id="NS_car.13" type="car" depart="243.75">
        <route edges="-E3 E2"/>
    </vehicle>
    <vehicle id="WE_car.14" type="car" depart="245.84">
        <route edges="E0 E0.40 E3"/>
    </vehicle>
    <vehicle id="EW_car.32" type="car" depart="250.98">
        <route edges="-E1 -E1.42 -E0"/>
    </vehicle>
    <vehicle id="SN_car.20" type="car" depart="254.40">
        <route edges="-E2 -E2.41 E1"/>
    </vehicle>
    <vehicle id="EW_car.33" type="car" depart="258.82">
        <route edges="-E1 -E1.42 -E0"/>
    </vehicle>
    <vehicle id="NS_car.14" type="car" depart="262.50">
        <route edges="-E3 E2"/>
    </vehicle>
    <vehicle id="WE_car.15" type="car" depart="263.40">
        <route edges="E0 E0.40 E1"/>
    </vehicle>
    <vehicle id="EW_car.34" type="car" depart="266.66">
        <route edges="-E1 -E1.42 E3"/>
    </vehicle>
    <vehicle id="SN_car.21" type="car" depart="267.12">
        <route edges="-E2 -E2.41 -E0"/>
    </vehicle>
    <vehicle id="EW_car.35" type="car" depart="274.51">
        <route edges="-E1 -E1.42 E3"/>
    </vehicle>
    <vehicle id="SN_car.22" type="car" depart="279.84">
        <route edges="-E2 -E2.41 E3"/>
    </vehicle>
    <vehicle id="WE_car.16" type="car" depart="280.96">
        <route edges="E0 E0.40 E3"/>
    </vehicle>
    <vehicle id="NS_car.15" type="car" depart="281.25">
        <route edges="-E3 E2"/>
    </vehicle>
    <vehicle id="EW_car.36" type="car" depart="282.35">
        <route edges="-E1 -E1.42 E3"/>
    </vehicle>
    <vehicle id="EW_car.37" type="car" depart="290.19">
        <route edges="-E1 -E1.42 -E0"/>
    </vehicle>
    <vehicle id="SN_car.23" type="car" depart="292.56">
        <route edges="-E2 -E2.41 E1"/>
    </vehicle>
    <vehicle id="EW_car.38" type="car" depart="298.03">
        <route edges="-E1 -E1.42 E3"/>
    </vehicle>
    <vehicle id="WE_car.17" type="car" depart="298.52">
        <route edges="E0 E0.40 E1"/>
    </vehicle>
    <vehicle id="NS_car.16" type="car" depart="300.00">
        <route edges="-E3 E2"/>
    </vehicle>
    <vehicle id="SN_car.24" type="car" depart="305.28">
        <route edges="-E2 -E2.41 E1"/>
    </vehicle>
    <vehicle id="EW_car.39" type="car" depart="305.88">
        <route edges="-E1 -E1.42 E3"/>
    </vehicle>
    <vehicle id="EW_car.40" type="car" depart="313.72">
        <route edges="-E1 -E1.42 -E0"/>
    </vehicle>
    <vehicle id="WE_car.18" type="car" depart="316.08">
        <route edges="E0 E0.40 E1"/>
    </vehicle>
    <vehicle id="SN_car.25" type="car" depart="318.00">
        <route edges="-E2 -E2.41 E3"/>
    </vehicle>
    <vehicle id="NS_car.17" type="car" depart="318.75">
        <route edges="-E3 E1"/>
    </vehicle>
    <vehicle id="EW_car.41" type="car" depart="321.56">
        <route edges="-E1 -E1.42 E3"/>
    </vehicle>
    <vehicle id="EW_car.42" type="car" depart="329.41">
        <route edges="-E1 -E1.42 -E0"/>
    </vehicle>
    <vehicle id="SN_car.26" type="car" depart="330.72">
        <route edges="-E2 -E2.41 E3"/>
    </vehicle>
    <vehicle id="WE_car.19" type="car" depart="333.64">
        <route edges="E0 E0.40 E3"/>
    </vehicle>
    <vehicle id="EW_car.43" type="car" depart="337.25">
        <route edges="-E1 -E1.42 E3"/>
    </vehicle>
    <vehicle id="NS_car.18" type="car" depart="337.50">
        <route edges="-E3 E1"/>
    </vehicle>
    <vehicle id="SN_car.27" type="car" depart="343.44">
        <route edges="-E2 -E2.41 E1"/>
    </vehicle>
    <vehicle id="EW_car.44" type="car" depart="345.09">
        <route edges="-E1 -E1.42 E3"/>
    </vehicle>
    <vehicle id="WE_car.20" type="car" depart="351.20">
        <route edges="E0 E0.40 E2"/>
    </vehicle>
    <vehicle id="EW_car.45" type="car" depart="352.94">
        <route edges="-E1 -E1.42 E2"/>
    </vehicle>
    <vehicle id="SN_car.28" type="car" depart="356.16">
        <route edges="-E2 -E2.41 E1"/>
    </vehicle>
    <vehicle id="NS_car.19" type="car" depart="356.25">
        <route edges="-E3 -E0"/>
    </vehicle>
    <vehicle id="EW_car.46" type="car" depart="360.78">
        <route edges="-E1 -E1.42 E3"/>
    </vehicle>
    <vehicle id="EW_car.47" type="car" depart="368.62">
        <route edges="-E1 -E1.42 E2"/>
    </vehicle>
    <vehicle id="WE_car.21" type="car" depart="368.76">
        <route edges="E0 E0.40 E3"/>
    </vehicle>
    <vehicle id="SN_car.29" type="car" depart="368.88">
        <route edges="-E2 -E2.41 -E0"/>
    </vehicle>
    <vehicle id="NS_car.20" type="car" depart="375.00">
        <route edges="-E3 E1"/>
    </vehicle>
    <vehicle id="EW_car.48" type="car" depart="376.46">
        <route edges="-E1 -E1.42 E2"/>
    </vehicle>
    <vehicle id="SN_car.30" type="car" depart="381.60">
        <route edges="-E2 -E2.41 E1"/>
    </vehicle>
    <vehicle id="EW_car.49" type="car" depart="384.31">
        <route edges="-E1 -E1.42 E3"/>
    </vehicle>
    <vehicle id="WE_car.22" type="car" depart="386.32">
        <route edges="E0 E0.40 E3"/>
    </vehicle>
    <vehicle id="EW_car.50" type="car" depart="392.15">
        <route edges="-E1 -E1.42 -E0"/>
    </vehicle>
    <vehicle id="NS_car.21" type="car" depart="393.75">
        <route edges="-E3 E1"/>
    </vehicle>
    <vehicle id="SN_car.31" type="car" depart="394.32">
        <route edges="-E2 -E2.41 E1"/>
    </vehicle>
    <vehicle id="EW_car.51" type="car" depart="399.99">
        <route edges="-E1 -E1.42 E3"/>
    </vehicle>
    <vehicle id="WE_car.23" type="car" depart="403.88">
        <route edges="E0 E0.40 E1"/>
    </vehicle>
    <vehicle id="SN_car.32" type="car" depart="407.04">
        <route edges="-E2 -E2.41 E1"/>
    </vehicle>
    <vehicle id="EW_car.52" type="car" depart="407.84">
        <route edges="-E1 -E1.42 -E0"/>
    </vehicle>
    <vehicle id="NS_car.22" type="car" depart="412.50">
        <route edges="-E3 E1"/>
    </vehicle>
    <vehicle id="EW_car.53" type="car" depart="415.68">
        <route edges="-E1 -E1.42 -E0"/>
    </vehicle>
    <vehicle id="SN_car.33" type="car" depart="419.76">
        <route edges="-E2 -E2.41 E3"/>
    </vehicle>
    <vehicle id="WE_car.24" type="car" depart="421.44">
        <route edges="E0 E0.40 E1"/>
    </vehicle>
    <vehicle id="EW_car.54" type="car" depart="423.52">
        <route edges="-E1 -E1.42 -E0"/>
    </vehicle>
    <vehicle id="NS_car.23" type="car" depart="431.25">
        <route edges="-E3 E2"/>
    </vehicle>
    <vehicle id="EW_car.55" type="car" depart="431.37">
        <route edges="-E1 -E1.42 E2"/>
    </vehicle>
    <vehicle id="SN_car.34" type="car" depart="432.48">
        <route edges="-E2 -E2.41 E1"/>
    </vehicle>
    <vehicle id="WE_car.25" type="car" depart="439.00">
        <route edges="E0 E0.40 E3"/>
    </vehicle>
    <vehicle id="EW_car.56" type="car" depart="439.21">
        <route edges="-E1 -E1.42 -E0"/>
    </vehicle>
    <vehicle id="SN_car.35" type="car" depart="445.20">
        <route edges="-E2 -E2.41 E3"/>
    </vehicle>
    <vehicle id="EW_car.57" type="car" depart="447.05">
        <route edges="-E1 -E1.42 -E0"/>
    </vehicle>
    <vehicle id="NS_car.24" type="car" depart="450.00">
        <route edges="-E3 -E0"/>
    </vehicle>
    <vehicle id="EW_car.58" type="car" depart="454.89">
        <route edges="-E1 -E1.42 E2"/>
    </vehicle>
    <vehicle id="WE_car.26" type="car" depart="456.56">
        <route edges="E0 E0.40 E3"/>
    </vehicle>
    <vehicle id="SN_car.36" type="car" depart="457.92">
        <route edges="-E2 -E2.41 E3"/>
    </vehicle>
    <vehicle id="EW_car.59" type="car" depart="462.74">
        <route edges="-E1 -E1.42 E3"/>
    </vehicle>
    <vehicle id="NS_car.25" type="car" depart="468.75">
        <route edges="-E3 E2"/>
    </vehicle>
    <vehicle id="EW_car.60" type="car" depart="470.58">
        <route edges="-E1 -E1.42 -E0"/>
    </vehicle>
    <vehicle id="SN_car.37" type="car" depart="470.64">
        <route edges="-E2 -E2.41 E3"/>
    </vehicle>
    <vehicle id="WE_car.27" type="car" depart="474.12">
        <route edges="E0 E0.40 E3"/>
    </vehicle>
    <vehicle id="EW_car.61" type="car" depart="478.42">
        <route edges="-E1 -E1.42 E2"/>
    </vehicle>
    <vehicle id="SN_car.38" type="car" depart="483.36">
        <route edges="-E2 -E2.41 E1"/>
    </vehicle>
    <vehicle id="EW_car.62" type="car" depart="486.27">
        <route edges="-E1 -E1.42 E2"/>
    </vehicle>
    <vehicle id="NS_car.26" type="car" depart="487.50">
        <route edges="-E3 E2"/>
    </vehicle>
    <vehicle id="WE_car.28" type="car" depart="491.68">
        <route edges="E0 E0.40 E3"/>
    </vehicle>
    <vehicle id="EW_car.63" type="car" depart="494.11">
        <route edges="-E1 -E1.42 E3"/>
    </vehicle>
    <vehicle id="SN_car.39" type="car" depart="496.08">
        <route edges="-E2 -E2.41 E1"/>
    </vehicle>
    <vehicle id="EW_car.64" type="car" depart="501.95">
        <route edges="-E1 -E1.42 E3"/>
    </vehicle>
    <vehicle id="NS_car.27" type="car" depart="506.25">
        <route edges="-E3 E2"/>
    </vehicle>
    <vehicle id="SN_car.40" type="car" depart="508.80">
        <route edges="-E2 -E2.41 E1"/>
    </vehicle>
    <vehicle id="WE_car.29" type="car" depart="509.24">
        <route edges="E0 E0.40 E3"/>
    </vehicle>
    <vehicle id="EW_car.65" type="car" depart="509.80">
        <route edges="-E1 -E1.42 E3"/>
    </vehicle>
    <vehicle id="EW_car.66" type="car" depart="517.64">
        <route edges="-E1 -E1.42 -E0"/>
    </vehicle>
    <vehicle id="SN_car.41" type="car" depart="521.52">
        <route edges="-E2 -E2.41 E3"/>
    </vehicle>
    <vehicle id="NS_car.28" type="car" depart="525.00">
        <route edges="-E3 E2"/>
    </vehicle>
    <vehicle id="EW_car.67" type="car" depart="525.48">
        <route edges="-E1 -E1.42 -E0"/>
    </vehicle>
    <vehicle id="WE_car.30" type="car" depart="526.80">
        <route edges="E0 E0.40 E1"/>
    </vehicle>
    <vehicle id="EW_car.68" type="car" depart="533.32">
        <route edges="-E1 -E1.42 E3"/>
    </vehicle>
    <vehicle id="SN_car.42" type="car" depart="534.24">
        <route edges="-E2 -E2.41 -E0"/>
    </vehicle>
    <vehicle id="EW_car.69" type="car" depart="541.17">
        <route edges="-E1 -E1.42 -E0"/>
    </vehicle>
    <vehicle id="NS_car.29" type="car" depart="543.75">
        <route edges="-E3 -E0"/>
    </vehicle>
    <vehicle id="WE_car.31" type="car" depart="544.36">
        <route edges="E0 E0.40 E2"/>
    </vehicle>
    <vehicle id="SN_car.43" type="car" depart="546.96">
        <route edges="-E2 -E2.41 E3"/>
    </vehicle>
    <vehicle id="EW_car.70" type="car" depart="549.01">
        <route edges="-E1 -E1.42 -E0"/>
    </vehicle>
    <vehicle id="EW_car.71" type="car" depart="556.85">
        <route edges="-E1 -E1.42 E3"/>
    </vehicle>
    <vehicle id="SN_car.44" type="car" depart="559.68">
        <route edges="-E2 -E2.41 -E0"/>
    </vehicle>
    <vehicle id="WE_car.32" type="car" depart="561.92">
        <route edges="E0 E0.40 E1"/>
    </vehicle>
    <vehicle id="NS_car.30" type="car" depart="562.50">
        <route edges="-E3 E2"/>
    </vehicle>
    <vehicle id="EW_car.72" type="car" depart="564.70">
        <route edges="-E1 -E1.42 -E0"/>
    </vehicle>
    <vehicle id="SN_car.45" type="car" depart="572.40">
        <route edges="-E2 -E2.41 -E0"/>
    </vehicle>
    <vehicle id="EW_car.73" type="car" depart="572.54">
        <route edges="-E1 -E1.42 -E0"/>
    </vehicle>
    <vehicle id="WE_car.33" type="car" depart="579.48">
        <route edges="E0 E0.40 E3"/>
    </vehicle>
    <vehicle id="EW_car.74" type="car" depart="580.38">
        <route edges="-E1 -E1.42 E3"/>
    </vehicle>
    <vehicle id="NS_car.31" type="car" depart="581.25">
        <route edges="-E3 E2"/>
    </vehicle>
    <vehicle id="SN_car.46" type="car" depart="585.12">
        <route edges="-E2 -E2.41 E3"/>
    </vehicle>
    <vehicle id="EW_car.75" type="car" depart="588.23">
        <route edges="-E1 -E1.42 -E0"/>
    </vehicle>
    <vehicle id="EW_car.76" type="car" depart="596.07">
        <route edges="-E1 -E1.42 -E0"/>
    </vehicle>
    <vehicle id="WE_car.34" type="car" depart="597.04">
        <route edges="E0 E0.40 E1"/>
    </vehicle>
    <vehicle id="SN_car.47" type="car" depart="597.84">
        <route edges="-E2 -E2.41 -E0"/>
    </vehicle>
    <vehicle id="NS_car.32" type="car" depart="600.00">
        <route edges="-E3 -E0"/>
    </vehicle>
    <vehicle id="EW_car.77" type="car" depart="603.91">
        <route edges="-E1 -E1.42 E3"/>
    </vehicle>
    <vehicle id="SN_car.48" type="car" depart="610.56">
        <route edges="-E2 -E2.41 E3"/>
    </vehicle>
    <vehicle id="EW_car.78" type="car" depart="611.75">
        <route edges="-E1 -E1.42 E2"/>
    </vehicle>
    <vehicle id="WE_car.35" type="car" depart="614.60">
        <route edges="E0 E0.40 E2"/>
    </vehicle>
    <vehicle id="NS_car.33" type="car" depart="618.75">
        <route edges="-E3 -E0"/>
    </vehicle>
    <vehicle id="EW_car.79" type="car" depart="619.60">
        <route edges="-E1 -E1.42 E3"/>
    </vehicle>
    <vehicle id="SN_car.49" type="car" depart="623.28">
        <route edges="-E2 -E2.41 E1"/>
    </vehicle>
    <vehicle id="EW_car.80" type="car" depart="627.44">
        <route edges="-E1 -E1.42 -E0"/>
    </vehicle>
    <vehicle id="WE_car.36" type="car" depart="632.16">
        <route edges="E0 E0.40 E1"/>
    </vehicle>
    <vehicle id="EW_car.81" type="car" depart="635.28">
        <route edges="-E1 -E1.42 E3"/>
    </vehicle>
    <vehicle id="SN_car.50" type="car" depart="636.00">
        <route edges="-E2 -E2.41 -E0"/>
    </vehicle>
    <vehicle id="NS_car.34" type="car" depart="637.50">
        <route edges="-E3 -E0"/>
    </vehicle>
    <vehicle id="EW_car.82" type="car" depart="643.13">
        <route edges="-E1 -E1.42 E3"/>
    </vehicle>
    <vehicle id="SN_car.51" type="car" depart="648.72">
        <route edges="-E2 -E2.41 E3"/>
    </vehicle>
    <vehicle id="WE_car.37" type="car" depart="649.72">
        <route edges="E0 E0.40 E3"/>
    </vehicle>
    <vehicle id="EW_car.83" type="car" depart="650.97">
        <route edges="-E1 -E1.42 -E0"/>
    </vehicle>
    <vehicle id="NS_car.35" type="car" depart="656.25">
        <route edges="-E3 E2"/>
    </vehicle>
    <vehicle id="EW_car.84" type="car" depart="658.81">
        <route edges="-E1 -E1.42 E2"/>
    </vehicle>
    <vehicle id="SN_car.52" type="car" depart="661.44">
        <route edges="-E2 -E2.41 E1"/>
    </vehicle>
    <vehicle id="EW_car.85" type="car" depart="666.66">
        <route edges="-E1 -E1.42 E2"/>
    </vehicle>
    <vehicle id="WE_car.38" type="car" depart="667.28">
        <route edges="E0 E0.40 E2"/>
    </vehicle>
    <vehicle id="SN_car.53" type="car" depart="674.16">
        <route edges="-E2 -E2.41 E3"/>
    </vehicle>
    <vehicle id="EW_car.86" type="car" depart="674.50">
        <route edges="-E1 -E1.42 -E0"/>
    </vehicle>
    <vehicle id="NS_car.36" type="car" depart="675.00">
        <route edges="-E3 -E0"/>
    </vehicle>
    <vehicle id="EW_car.87" type="car" depart="682.34">
        <route edges="-E1 -E1.42 E3"/>
    </vehicle>
    <vehicle id="WE_car.39" type="car" depart="684.84">
        <route edges="E0 E0.40 E2"/>
    </vehicle>
    <vehicle id="SN_car.54" type="car" depart="686.88">
        <route edges="-E2 -E2.41 -E0"/>
    </vehicle>
    <vehicle id="EW_car.88" type="car" depart="690.18">
        <route edges="-E1 -E1.42 E3"/>
    </vehicle>
    <vehicle id="NS_car.37" type="car" depart="693.75">
        <route edges="-E3 -E0"/>
    </vehicle>
    <vehicle id="EW_car.89" type="car" depart="698.03">
        <route edges="-E1 -E1.42 -E0"/>
    </vehicle>
    <vehicle id="SN_car.55" type="car" depart="699.60">
        <route edges="-E2 -E2.41 -E0"/>
    </vehicle>
    <vehicle id="WE_car.40" type="car" depart="702.40">
        <route edges="E0 E0.40 E3"/>
    </vehicle>
    <vehicle id="EW_car.90" type="car" depart="705.87">
        <route edges="-E1 -E1.42 -E0"/>
    </vehicle>
    <vehicle id="SN_car.56" type="car" depart="712.32">
        <route edges="-E2 -E2.41 E1"/>
    </vehicle>
    <vehicle id="NS_car.38" type="car" depart="712.50">
        <route edges="-E3 E2"/>
    </vehicle>
    <vehicle id="EW_car.91" type="car" depart="713.71">
        <route edges="-E1 -E1.42 E2"/>
    </vehicle>
    <vehicle id="WE_car.41" type="car" depart="719.96">
        <route edges="E0 E0.40 E3"/>
    </vehicle>
    <vehicle id="EW_car.92" type="car" depart="721.56">
        <route edges="-E1 -E1.42 E3"/>
    </vehicle>
    <vehicle id="SN_car.57" type="car" depart="725.04">
        <route edges="-E2 -E2.41 -E0"/>
    </vehicle>
    <vehicle id="EW_car.93" type="car" depart="729.40">
        <route edges="-E1 -E1.42 E3"/>
    </vehicle>
    <vehicle id="NS_car.39" type="car" depart="731.25">
        <route edges="-E3 E1"/>
    </vehicle>
    <vehicle id="EW_car.94" type="car" depart="737.24">
        <route edges="-E1 -E1.42 -E0"/>
    </vehicle>
    <vehicle id="WE_car.42" type="car" depart="737.52">
        <route edges="E0 E0.40 E2"/>
    </vehicle>
    <vehicle id="SN_car.58" type="car" depart="737.76">
        <route edges="-E2 -E2.41 E1"/>
    </vehicle>
    <vehicle id="EW_car.95" type="car" depart="745.09">
        <route edges="-E1 -E1.42 -E0"/>
    </vehicle>
    <vehicle id="NS_car.40" type="car" depart="750.00">
        <route edges="-E3 E2"/>
    </vehicle>
    <vehicle id="SN_car.59" type="car" depart="750.48">
        <route edges="-E2 -E2.41 E1"/>
    </vehicle>
    <vehicle id="EW_car.96" type="car" depart="752.93">
        <route edges="-E1 -E1.42 E3"/>
    </vehicle>
    <vehicle id="WE_car.43" type="car" depart="755.08">
        <route edges="E0 E0.40 E1"/>
    </vehicle>
    <vehicle id="EW_car.97" type="car" depart="760.77">
        <route edges="-E1 -E1.42 E2"/>
    </vehicle>
    <vehicle id="SN_car.60" type="car" depart="763.20">
        <route edges="-E2 -E2.41 -E0"/>
    </vehicle>
    <vehicle id="EW_car.98" type="car" depart="768.61">
        <route edges="-E1 -E1.42 E2"/>
    </vehicle>
    <vehicle id="NS_car.41" type="car" depart="768.75">
        <route edges="-E3 E1"/>
    </vehicle>
    <vehicle id="WE_car.44" type="car" depart="772.64">
        <route edges="E0 E0.40 E3"/>
    </vehicle>
    <vehicle id="SN_car.61" type="car" depart="775.92">
        <route edges="-E2 -E2.41 -E0"/>
    </vehicle>
    <vehicle id="EW_car.99" type="car" depart="776.46">
        <route edges="-E1 -E1.42 E2"/>
    </vehicle>
    <vehicle id="EW_car.100" type="car" depart="784.30">
        <route edges="-E1 -E1.42 E2"/>
    </vehicle>
    <vehicle id="NS_car.42" type="car" depart="787.50">
        <route edges="-E3 -E0"/>
    </vehicle>
    <vehicle id="SN_car.62" type="car" depart="788.64">
        <route edges="-E2 -E2.41 E3"/>
    </vehicle>
    <vehicle id="WE_car.45" type="car" depart="790.20">
        <route edges="E0 E0.40 E1"/>
    </vehicle>
    <vehicle id="EW_car.101" type="car" depart="792.14">
        <route edges="-E1 -E1.42 E3"/>
    </vehicle>
    <vehicle id="EW_car.102" type="car" depart="799.99">
        <route edges="-E1 -E1.42 -E0"/>
    </vehicle>
    <vehicle id="SN_car.63" type="car" depart="801.36">
        <route edges="-E2 -E2.41 E3"/>
    </vehicle>
    <vehicle id="NS_car.43" type="car" depart="806.25">
        <route edges="-E3 E2"/>
    </vehicle>
    <vehicle id="WE_car.46" type="car" depart="807.76">
        <route edges="E0 E0.40 E3"/>
    </vehicle>
    <vehicle id="EW_car.103" type="car" depart="807.83">
        <route edges="-E1 -E1.42 -E0"/>
    </vehicle>
    <vehicle id="SN_car.64" type="car" depart="814.08">
        <route edges="-E2 -E2.41 E3"/>
    </vehicle>
    <vehicle id="EW_car.104" type="car" depart="815.67">
        <route edges="-E1 -E1.42 E3"/>
    </vehicle>
    <vehicle id="EW_car.105" type="car" depart="823.52">
        <route edges="-E1 -E1.42 -E0"/>
    </vehicle>
    <vehicle id="NS_car.44" type="car" depart="825.00">
        <route edges="-E3 E2"/>
    </vehicle>
    <vehicle id="WE_car.47" type="car" depart="825.32">
        <route edges="E0 E0.40 E2"/>
    </vehicle>
    <vehicle id="SN_car.65" type="car" depart="826.80">
        <route edges="-E2 -E2.41 E3"/>
    </vehicle>
    <vehicle id="EW_car.106" type="car" depart="831.36">
        <route edges="-E1 -E1.42 E3"/>
    </vehicle>
    <vehicle id="EW_car.107" type="car" depart="839.20">
        <route edges="-E1 -E1.42 E3"/>
    </vehicle>
    <vehicle id="SN_car.66" type="car" depart="839.52">
        <route edges="-E2 -E2.41 E1"/>
    </vehicle>
    <vehicle id="WE_car.48" type="car" depart="842.88">
        <route edges="E0 E0.40 E2"/>