<?xml version="1.0" encoding="UTF-8"?>

<!-- generated on 2026-05-23T15:23:58.503808+08:00 by Eclipse SUMO jtrrouter 1.26.0
<jtrrouterConfiguration xmlns:xsi="http://www.w3.org/2001/XMLSchema-instance" xsi:noNamespaceSchemaLocation="http://sumo.dlr.de/xsd/jtrrouterConfiguration.xsd">

    <input>
        <net-file value="demo_10.net.xml"/>
        <route-files value="demo_10.flow.xml"/>
        <turn-ratio-files value="demo_10.turn.xml"/>
    </input>

    <output>
        <output-file value="demo_10.rou.xml"/>
    </output>

    <time>
        <begin value="0"/>
        <end value="3600"/>
    </time>

</jtrrouterConfiguration>
-->

<routes xmlns:xsi="http://www.w3.org/2001/XMLSchema-instance" xsi:noNamespaceSchemaLocation="http://sumo.dlr.de/xsd/routes_file.xsd">
    <vType id="car" maxSpeed="37.00" vClass="passenger"/>
    <vehicle id="EW_car.0" type="car" depart="0.00">
        <route edges="-E1 E2"/>
    </vehicle>
    <vehicle id="SN_car.0" type="car" depart="0.00">
        <route edges="-E2 E1"/>
    </vehicle>
    <vehicle id="WE_car.0" type="car" depart="0.00">
        <route edges="E0 E1"/>
    </vehicle>
    <vehicle id="WE_car.1" type="car" depart="11.04">
        <route edges="E0 E1"/>
    </vehicle>
    <vehicle id="EW_car.1" type="car" depart="11.58">
        <route edges="-E1 E2"/>
    </vehicle>
    <vehicle id="SN_car.1" type="car" depart="11.80">
        <route edges="-E2 -E0"/>
    </vehicle>
    <vehicle id="WE_car.2" type="car" depart="22.08">
        <route edges="E0 E2"/>
    </vehicle>
    <vehicle id="EW_car.2" type="car" depart="23.15">
        <route edges="-E1 -E0"/>
    </vehicle>
    <vehicle id="SN_car.2" type="car" depart="23.61">
        <route edges="-E2 E1"/>
    </vehicle>
    <vehicle id="WE_car.3" type="car" depart="33.13">
        <route edges="E0 E2"/>
    </vehicle>
    <vehicle id="EW_car.3" type="car" depart="34.73">
        <route edges="-E1 -E0"/>
    </vehicle>
    <vehicle id="SN_car.3" type="car" depart="35.41">
        <route edges="-E2 E1"/>
    </vehicle>
    <vehicle id="WE_car.4" type="car" depart="44.17">
        <route edges="E0 E1"/>
    </vehicle>
    <vehicle id="EW_car.4" type="car" depart="46.30">
        <route edges="-E1 E2"/>
    </vehicle>
    <vehicle id="SN_car.4" type="car" depart="47.21">
        <route edges="-E2 E1"/>
    </vehicle>
    <vehicle id="WE_car.5" type="car" depart="55.21">
        <route edges="E0 E1"/>
    </vehicle>
    <vehicle id="EW_car.5" type="car" depart="57.88">
        <route edges="-E1 -E0"/>
    </vehicle>
    <vehicle id="SN_car.5" type="car" depart="59.02">
        <route edges="-E2 E1"/>
    </vehicle>
    <vehicle id="WE_car.6" type="car" depart="66.25">
        <route edges="E0 E1"/>
    </vehicle>
    <vehicle id="EW_car.6" type="car" depart="69.45">
        <route edges="-E1 E2"/>
    </vehicle>
    <vehicle id="SN_car.6" type="car" depart="70.82">
        <route edges="-E2 -E0"/>
    </vehicle>
    <vehicle id="WE_car.7" type="car" depart="77.29">
        <route edges="E0 E2"/>
    </vehicle>
    <vehicle id="EW_car.7" type="car" depart="81.03">
        <route edges="-E1 E2"/>
    </vehicle>
    <vehicle id="SN_car.7" type="car" depart="82.62">
        <route edges="-E2 E1"/>
    </vehicle>
    <vehicle id="WE_car.8" type="car" depart="88.34">
        <route edges="E0 E2"/>
    </vehicle>
    <vehicle id="EW_car.8" type="car" depart="92.60">
        <route edges="-E1 E2"/>
    </vehicle>
    <vehicle id="SN_car.8" type="car" depart="94.42">
        <route edges="-E2 E1"/>
    </vehicle>
    <vehicle id="WE_car.9" type="car" depart="99.38">
        <route edges="E0 E1"/>
    </vehicle>
    <vehicle id="EW_car.9" type="car" depart="104.18">
        <route edges="-E1 E2"/>
    </vehicle>
    <vehicle id="SN_car.9" type="car" depart="106.23">
        <route edges="-E2 -E0"/>
    </vehicle>
    <vehicle id="WE_car.10" type="car" depart="110.42">
        <route edges="E0 E1"/>
    </vehicle>
    <vehicle id="EW_car.10" type="car" depart="115.75">
        <route edges="-E1 E2"/>
    </vehicle>
    <vehicle id="SN_car.10" type="car" depart="118.03">
        <route edges="-E2 E1"/>
    </vehicle>
    <vehicle id="WE_car.11" type="car" depart="121.46">
        <route edges="E0 E1"/>
    </vehicle>
    <vehicle id="EW_car.11" type="car" depart="127.33">
        <route edges="-E1 E2"/>
    </vehicle>
    <vehicle id="SN_car.11" type="car" depart="129.83">
        <route edges="-E2 -E0"/>
    </vehicle>
    <vehicle id="WE_car.12" type="car" depart="132.50">
        <route edges="E0 E2"/>
    </vehicle>
    <vehicle id="EW_car.12" type="car" depart="138.90">
        <route edges="-E1 E2"/>
    </vehicle>
    <vehicle id="SN_car.12" type="car" depart="141.64">
        <route edges="-E2 -E0"/>
    </vehicle>
    <vehicle id="WE_car.13" type="car" depart="143.55">
        <route edges="E0 E1"/>
    </vehicle>
    <vehicle id="EW_car.13" type="car" depart="150.48">
        <route edges="-E1 E2"/>
    </vehicle>
    <vehicle id="SN_car.13" type="car" depart="153.44">
        <route edges="-E2 E1"/>
    </vehicle>
    <vehicle id="WE_car.14" type="car" depart="154.59">
        <route edges="E0 E1"/>
    </vehicle>
    <vehicle id="EW_car.14" type="car" depart="162.05">
        <route edges="-E1 -E0"/>
    </vehicle>
    <vehicle id="SN_car.14" type="car" depart="165.24">
        <route edges="-E2 -E0"/>
    </vehicle>
    <vehicle id="WE_car.15" type="car" depart="165.63">
        <route edges="E0 E2"/>
    </vehicle>
    <vehicle id="EW_car.15" type="car" depart="173.63">
        <route edges="-E1 -E0"/>
    </vehicle>
    <vehicle id="WE_car.16" type="car" depart="176.67">
        <route edges="E0 E2"/>
    </vehicle>
    <vehicle id="SN_car.15" type="car" depart="177.05">
        <route edges="-E2 -E0"/>
    </vehicle>
    <vehicle id="EW_car.16" type="car" depart="185.20">
        <route edges="-E1 E2"/>
    </vehicle>
    <vehicle id="WE_car.17" type="car" depart="187.71">
        <route edges="E0 E2"/>
    </vehicle>
    <vehicle id="SN_car.16" type="car" depart="188.85">
        <route edges="-E2 E1"/>
    </vehicle>
    <vehicle id="EW_car.17" type="car" depart="196.78">
        <route edges="-E1 E2"/>
    </vehicle>
    <vehicle id="WE_car.18" type="car" depart="198.76">
        <route edges="E0 E2"/>
    </vehicle>
    <vehicle id="SN_car.17" type="car" depart="200.65">
        <route edges="-E2 E1"/>
    </vehicle>
    <vehicle id="EW_car.18" type="car" depart="208.35">
        <route edges="-E1 E2"/>
    </vehicle>
    <vehicle id="WE_car.19" type="car" depart="209.80">
        <route edges="E0 E1"/>
    </vehicle>
    <vehicle id="SN_car.18" type="car" depart="212.45">
        <route edges="-E2 E1"/>
    </vehicle>
    <vehicle id="EW_car.19" type="car" depart="219.93">
        <route edges="-E1 -E0"/>
    </vehicle>
    <vehicle id="WE_car.20" type="car" depart="220.84">
        <route edges="E0 E2"/>
    </vehicle>
    <vehicle id="SN_car.19" type="car" depart="224.26">
        <route edges="-E2 -E0"/>
    </vehicle>
    <vehicle id="EW_car.20" type="car" depart="231.50">
        <route edges="-E1 E2"/>
    </vehicle>
    <vehicle id="WE_car.21" type="car" depart="231.88">
        <route edges="E0 E1"/>
    </vehicle>
    <vehicle id="SN_car.20" type="car" depart="236.06">
        <route edges="-E2 -E0"/>
    </vehicle>
    <vehicle id="WE_car.22" type="car" depart="242.92">
        <route edges="E0 E1"/>
    </vehicle>
    <vehicle id="EW_car.21" type="car" depart="243.08">
        <route edges="-E1 E2"/>
    </vehicle>
    <vehicle id="SN_car.21" type="car" depart="247.86">
        <route edges="-E2 E1"/>
    </vehicle>
    <vehicle id="WE_car.23" type="car" depart="253.97">
        <route edges="E0 E1"/>
    </vehicle>
    <vehicle id="EW_car.22" type="car" depart="254.65">
        <route edges="-E1 -E0"/>
    </vehicle>
    <vehicle id="SN_car.22" type="car" depart="259.67">
        <route edges="-E2 E1"/>
    </vehicle>
    <vehicle id="WE_car.24" type="car" depart="265.01">
        <route edges="E0 E1"/>
    </vehicle>
    <vehicle id="EW_car.23" type="car" depart="266.23">
        <route edges="-E1 E2"/>
    </vehicle>
    <vehicle id="SN_car.23" type="car" depart="271.47">
        <route edges="-E2 -E0"/>
    </vehicle>
    <vehicle id="WE_car.25" type="car" depart="276.05">
        <route edges="E0 E2"/>
    </vehicle>
    <vehicle id="EW_car.24" type="car" depart="277.80">
        <route edges="-E1 -E0"/>
    </vehicle>
    <vehicle id="SN_car.24" type="car" depart="283.27">
        <route edges="-E2 -E0"/>
    </vehicle>
    <vehicle id="WE_car.26" type="car" depart="287.09">
        <route edges="E0 E1"/>
    </vehicle>
    <vehicle id="EW_car.25" type="car" depart="289.38">
        <route edges="-E1 -E0"/>
    </vehicle>
    <vehicle id="SN_car.25" type="car" depart="295.08">
        <route edges="-E2 E1"/>
    </vehicle>
    <vehicle id="WE_car.27" type="car" depart="298.13">
        <route edges="E0 E1"/>
    </vehicle>
    <vehicle id="EW_car.26" type="car" depart="300.95">
        <route edges="-E1 -E0"/>
    </vehicle>
    <vehicle id="SN_car.26" type="car" depart="306.88">
        <route edges="-E2 -E0"/>
    </vehicle>
    <vehicle id="WE_car.28" type="car" depart="309.18">
        <route edges="E0 E2"/>
    </vehicle>
    <vehicle id="EW_car.27" type="car" depart="312.53">
        <route edges="-E1 E2"/>
    </vehicle>
    <vehicle id="SN_car.27" type="car" depart="318.68">
        <route edges="-E2 E1"/>
    </vehicle>
    <vehicle id="WE_car.29" type="car" depart="320.22">
        <route edges="E0 E1"/>
    </vehicle>
    <vehicle id="EW_car.28" type="car" depart="324.10">
        <route edges="-E1 E2"/>
    </vehicle>
    <vehicle id="SN_car.28" type="car" depart="330.48">
        <route edges="-E2 E1"/>
    </vehicle>
    <vehicle id="WE_car.30" type="car" depart="331.26">
        <route edges="E0 E2"/>
    </vehicle>
    <vehicle id="EW_car.29" type="car" depart="335.68">
        <route edges="-E1 E2"/>
    </vehicle>
    <vehicle id="SN_car.29" type="car" depart="342.29">
        <route edges="-E2 -E0"/>
    </vehicle>
    <vehicle id="WE_car.31" type="car" depart="342.30">
        <route edges="E0 E2"/>
    </vehicle>
    <vehicle id="EW_car.30" type="car" depart="347.25">
        <route edges="-E1 -E0"/>
    </vehicle>
    <vehicle id="WE_car.32" type="car" depart="353.34">
        <route edges="E0 E1"/>
    </vehicle>
    <vehicle id="SN_car.30" type="car" depart="354.09">
        <route edges="-E2 -E0"/>
    </vehicle>
    <vehicle id="EW_car.31" type="car" depart="358.83">
        <route edges="-E1 E2"/>
    </vehicle>
    <vehicle id="WE_car.33" type="car" depart="364.39">
        <route edges="E0 E2"/>
    </vehicle>
    <vehicle id="SN_car.31" type="car" depart="365.89">
        <route edges="-E2 E1"/>
    </vehicle>
    <vehicle id="EW_car.32" type="car" depart="370.40">
        <route edges="-E1 E2"/>
    </vehicle>
    <vehicle id="WE_car.34" type="car" depart="375.43">
        <route edges="E0 E1"/>
    </vehicle>
    <vehicle id="SN_car.32" type="car" depart="377.70">
        <route edges="-E2 E1"/>
    </vehicle>
    <vehicle id="EW_car.33" type="car" depart="381.98">
        <route edges="-E1 E2"/>
    </vehicle>
    <vehicle id="WE_car.35" type="car" depart="386.47">
        <route edges="E0 E2"/>
    </vehicle>
    <vehicle id="SN_car.33" type="car" depart="389.50">
        <route edges="-E2 E1"/>
    </vehicle>
    <vehicle id="EW_car.34" type="car" depart="393.55">
        <route edges="-E1 E2"/>
    </vehicle>
    <vehicle id="WE_car.36" type="car" depart="397.51">
        <route edges="E0 E1"/>
    </vehicle>
    <vehicle id="SN_car.34" type="car" depart="401.30">
        <route edges="-E2 E1"/>
    </vehicle>
    <vehicle id="EW_car.35" type="car" depart="405.13">
        <route edges="-E1 E2"/>
    </vehicle>
    <vehicle id="WE_car.37" type="car" depart="408.55">
        <route edges="E0 E2"/>
    </vehicle>
    <vehicle id="SN_car.35" type="car" depart="413.11">
        <route edges="-E2 -E0"/>
    </vehicle>
    <vehicle id="EW_car.36" type="car" depart="416.70">
        <route edges="-E1 E2"/>
    </vehicle>
    <vehicle id="WE_car.38" type="car" depart="419.60">
        <route edges="E0 E2"/>
    </vehicle>
    <vehicle id="SN_car.36" type="car" depart="424.91">
        <route edges="-E2 E1"/>
    </vehicle>
    <vehicle id="EW_car.37" type="car" depart="428.28">
        <route edges="-E1 -E0"/>
    </vehicle>
    <vehicle id="WE_car.39" type="car" depart="430.64">
        <route edges="E0 E2"/>
    </vehicle>
    <vehicle id="SN_car.37" type="car" depart="436.71">
        <route edges="-E2 -E0"/>
    </vehicle>
    <vehicle id="EW_car.38" type="car" depart="439.85">
        <route edges="-E1 E2"/>
    </vehicle>
    <vehicle id="WE_car.40" type="car" depart="441.68">
        <route edges="E0 E1"/>
    </vehicle>
    <vehicle id="SN_car.38" type="car" depart="448.51">
        <route edges="-E2 E1"/>
    </vehicle>
    <vehicle id="EW_car.39" type="car" depart="451.43">
        <route edges="-E1 E2"/>
    </vehicle>
    <vehicle id="WE_car.41" type="car" depart="452.72">
        <route edges="E0 E1"/>
    </vehicle>
    <vehicle id="SN_car.39" type="car" depart="460.32">
        <route edges="-E2 -E0"/>
    </vehicle>
    <vehicle id="EW_car.40" type="car" depart="463.00">
        <route edges="-E1 E2"/>
    </vehicle>
    <vehicle id="WE_car.42" type="car" depart="463.76">
        <route edges="E0 E2"/>
    </vehicle>
    <vehicle id="SN_car.40" type="car" depart="472.12">
        <route edges="-E2 E1"/>
    </vehicle>
    <vehicle id="EW_car.41" type="car" depart="474.58">
        <route edges="-E1 E2"/>
    </vehicle>
    <vehicle id="WE_car.43" type="car" depart="474.81">
        <route edges="E0 E1"/>
    </vehicle>
    <vehicle id="SN_car.41" type="car" depart="483.92">
        <route edges="-E2 E1"/>
    </vehicle>
    <vehicle id="WE_car.44" type="car" depart="485.85">
        <route edges="E0 E1"/>
    </vehicle>
    <vehicle id="EW_car.42" type="car" depart="486.15">
        <route edges="-E1 E2"/>
    </vehicle>
    <vehicle id="SN_car.42" type="car" depart="495.73">
        <route edges="-E2 E1"/>
    </vehicle>
    <vehicle id="WE_car.45" type="car" depart="496.89">
        <route edges="E0 E2"/>
    </vehicle>
    <vehicle id="EW_car.43" type="car" depart="497.73">
        <route edges="-E1 -E0"/>
    </vehicle>
    <vehicle id="SN_car.43" type="car" depart="507.53">
        <route edges="-E2 -E0"/>
    </vehicle>
    <vehicle id="WE_car.46" type="car" depart="507.93">
        <route edges="E0 E2"/>
    </vehicle>
    <vehicle id="EW_car.44" type="car" depart="509.30">
        <route edges="-E1 E2"/>
    </vehicle>
    <vehicle id="WE_car.47" type="car" depart="518.97">
        <route edges="E0 E2"/>
    </vehicle>
    <vehicle id="SN_car.44" type="car" depart="519.33">
        <route edges="-E2 -E0"/>
    </vehicle>
    <vehicle id="EW_car.45" type="car" depart="520.88">
        <route edges="-E1 E2"/>
    </vehicle>
    <vehicle id="WE_car.48" type="car" depart="530.02">
        <route edges="E0 E2"/>
    </vehicle>
    <vehicle id="SN_car.45" type="car" depart="531.14">
        <route edges="-E2 E1"/>
    </vehicle>
    <vehicle id="EW_car.46" type="car" depart="532.45">
        <route edges="-E1 E2"/>
    </vehicle>
    <vehicle id="WE_car.49" type="car" depart="541.06">
        <route edges="E0 E2"/>
    </vehicle>
    <vehicle id="SN_car.46" type="car" depart="542.94">
        <route edges="-E2 -E0"/>
    </vehicle>
    <vehicle id="EW_car.47" type="car" depart="544.03">
        <route edges="-E1 E2"/>
    </vehicle>
    <vehicle id="WE_car.50" type="car" depart="552.10">
        <route edges="E0 E2"/>
    </vehicle>
    <vehicle id="SN_car.47" type="car" depart="554.74">
        <route edges="-E2 E1"/>
    </vehicle>
    <vehicle id="EW_car.48" type="car" depart="555.60">
        <route edges="-E1 E2"/>
    </vehicle>
    <vehicle id="WE_car.51" type="car" depart="563.14">
        <route edges="E0 E1"/>
    </vehicle>
    <vehicle id="SN_car.48" type="car" depart="566.54">
        <route edges="-E2 -E0"/>
    </vehicle>
    <vehicle id="EW_car.49" type="car" depart="567.18">
        <route edges="-E1 E2"/>
    </vehicle>
    <vehicle id="WE_car.52" type="car" depart="574.18">
        <route edges="E0 E1"/>
    </vehicle>
    <vehicle id="SN_car.49" type="car" depart="578.35">
        <route edges="-E2 -E0"/>
    </vehicle>
    <vehicle id="EW_car.50" type="car" depart="578.75">
        <route edges="-E1 -E0"/>
    </vehicle>
    <vehicle id="WE_car.53" type="car" depart="585.23">
        <route edges="E0 E2"/>
    </vehicle>
    <vehicle id="SN_car.50" type="car" depart="590.15">
        <route edges="-E2 E1"/>
    </vehicle>
    <vehicle id="EW_car.51" type="car" depart="590.33">
        <route edges="-E1 -E0"/>
    </vehicle>
    <vehicle id="WE_car.54" type="car" depart="596.27">
        <route edges="E0 E1"/>
    </vehicle>
    <vehicle id="EW_car.52" type="car" depart="601.90">
        <route edges="-E1 E2"/>
    </vehicle>
    <vehicle id="SN_car.51" type="car" depart="601.95">
        <route edges="-E2 E1"/>
    </vehicle>
    <vehicle id="WE_car.55" type="car" depart="607.31">
        <route edges="E0 E1"/>
    </vehicle>
    <vehicle id="EW_car.53" type="car" depart="613.48">
        <route edges="-E1 E2"/>
    </vehicle>
    <vehicle id="SN_car.52" type="car" depart="613.76">
        <route edges="-E2 E1"/>
    </vehicle>
    <vehicle id="WE_car.56" type="car" depart="618.35">
        <route edges="E0 E1"/>
    </vehicle>
    <vehicle id="EW_car.54" type="car" depart="625.05">
        <route edges="-E1 E2"/>
    </vehicle>
    <vehicle id="SN_car.53" type="car" depart="625.56">
        <route edges="-E2 E1"/>
    </vehicle>
    <vehicle id="WE_car.57" type="car" depart="629.39">
        <route edges="E0 E2"/>
    </vehicle>
    <vehicle id="EW_car.55" type="car" depart="636.63">
        <route edges="-E1 E2"/>
    </vehicle>
    <vehicle id="SN_car.54" type="car" depart="637.36">
        <route edges="-E2 E1"/>
    </vehicle>
    <vehicle id="WE_car.58" type="car" depart="640.44">
        <route edges="E0 E2"/>
    </vehicle>
    <vehicle id="EW_car.56" type="car" depart="648.20">
        <route edges="-E1 E2"/>
    </vehicle>
    <vehicle id="SN_car.55" type="car" depart="649.17">
        <route edges="-E2 -E0"/>
    </vehicle>
    <vehicle id="WE_car.59" type="car" depart="651.48">
        <route edges="E0 E1"/>
    </vehicle>
    <vehicle id="EW_car.57" type="car" depart="659.78">
        <route edges="-E1 E2"/>
    </vehicle>
    <vehicle id="SN_car.56" type="car" depart="660.97">
        <route edges="-E2 -E0"/>
    </vehicle>
    <vehicle id="WE_car.60" type="car" depart="662.52">
        <route edges="E0 E2"/>
    </vehicle>
    <vehicle id="EW_car.58" type="car" depart="671.35">
        <route edges="-E1 E2"/>
    </vehicle>
    <vehicle id="SN_car.57" type="car" depart="672.77">
        <route edges="-E2 -E0"/>
    </vehicle>
    <vehicle id="WE_car.61" type="car" depart="673.56">
        <route edges="E0 E2"/>
    </vehicle>
    <vehicle id="EW_car.59" type="car" depart="682.93">
        <route edges="-E1 -E0"/>
    </vehicle>
    <vehicle id="SN_car.58" type="car" depart="684.57">
        <route edges="-E2 E1"/>
    </vehicle>
    <vehicle id="WE_car.62" type="car" depart="684.60">
        <route edges="E0 E1"/>
    </vehicle>
    <vehicle id="EW_car.60" type="car" depart="694.50">
        <route edges="-E1 E2"/>
    </vehicle>
    <vehicle id="WE_car.63" type="car" depart="695.65">
        <route edges="E0 E1"/>
    </vehicle>
    <vehicle id="SN_car.59" type="car" depart="696.38">
        <route edges="-E2 -E0"/>
    </vehicle>
    <vehicle id="EW_car.61" type="car" depart="706.08">
        <route edges="-E1 -E0"/>
    </vehicle>
    <vehicle id="WE_car.64" type="car" depart="706.69">
        <route edges="E0 E1"/>
    </vehicle>
    <vehicle id="SN_car.60" type="car" depart="708.18">
        <route edges="-E2 -E0"/>
    </vehicle>
    <vehicle id="EW_car.62" type="car" depart="717.65">
        <route edges="-E1 E2"/>
    </vehicle>
    <vehicle id="WE_car.65" type="car" depart="717.73">
        <route edges="E0 E1"/>
    </vehicle>
    <vehicle id="SN_car.61" type="car" depart="719.98">
        <route edges="-E2 -E0"/>
    </vehicle>
    <vehicle id="WE_car.66" type="car" depart="728.77">
        <route edges="E0 E2"/>
    </vehicle>
    <vehicle id="EW_car.63" type="car" depart="729.23">
        <route edges="-E1 E2"/>
    </vehicle>
    <vehicle id="SN_car.62" type="car" depart="731.79">
        <route edges="-E2 -E0"/>
    </vehicle>
    <vehicle id="WE_car.67" type="car" depart="739.81">
        <route edges="E0 E1"/>
    </vehicle>
    <vehicle id="EW_car.64" type="car" depart="740.80">
        <route edges="-E1 E2"/>
    </vehicle>
    <vehicle id="SN_car.63" type="car" depart="743.59">
        <route edges="-E2 -E0"/>
    </vehicle>
    <vehicle id="WE_car.68" type="car" depart="750.86">
        <route edges="E0 E2"/>
    </vehicle>
    <vehicle id="EW_car.65" type="car" depart="752.38">
        <route edges="-E1 E2"/>
    </vehicle>
    <vehicle id="SN_car.64" type="car" depart="755.39">
        <route edges="-E2 E1"/>
    </vehicle>
    <vehicle id="WE_car.69" type="car" depart="761.90">
        <route edges="E0 E1"/>
    </vehicle>
    <vehicle id="EW_car.66" type="car" depart="763.95">
        <route edges="-E1 -E0"/>
    </vehicle>
    <vehicle id="SN_car.65" type="car" depart="767.20">
        <route edges="-E2 E1"/>
    </vehicle>
    <vehicle id="WE_car.70" type="car" depart="772.94">
        <route edges="E0 E1"/>
    </vehicle>
    <vehicle id="EW_car.67" type="car" depart="775.53">
        <route edges="-E1 E2"/>
    </vehicle>
    <vehicle id="SN_car.66" type="car" depart="779.00">
        <route edges="-E2 E1"/>
    </vehicle>
    <vehicle id="WE_car.71" type="car" depart="783.98">
        <route edges="E0 E2"/>
    </vehicle>
    <vehicle id="EW_car.68" type="car" depart="787.10">
        <route edges="-E1 -E0"/>
    </vehicle>
    <vehicle id="SN_car.67" type="car" depart="790.80">
        <route edges="-E2 E1"/>
    </vehicle>
    <vehicle id="WE_car.72" type="car" depart="795.02">
        <route edges="E0 E1"/>
    </vehicle>
    <vehicle id="EW_car.69" type="car" depart="798.68">
        <route edges="-E1 E2"/>
    </vehicle>
    <vehicle id="SN_car.68" type="car" depart="802.60">
        <route edges="-E2 -E0"/>
    </vehicle>
    <vehicle id="WE_car.73" type="car" depart="806.07">
        <route edges="E0 E1"/>
    </vehicle>
    <vehicle id="EW_car.70" type="car" depart="810.25">
        <route edges="-E1 E2"/>
    </vehicle>
    <vehicle id="SN_car.69" type="car" depart="814.41">
        <route edges="-E2 E1"/>
    </vehicle>
    <vehicle id="WE_car.74" type="car" depart="817.11">
        <route edges="E0 E2"/>
    </vehicle>
    <vehicle id="EW_car.71" type="car" depart="821.83">
        <route edges="-E1 -E0"/>
    </vehicle>
    <vehicle id="SN_car.70" type="car" depart="826.21">
        <route edges="-E2 E1"/>
    </vehicle>
    <vehicle id="WE_car.75" type="car" depart="828.15">
        <route edges="E0 E1"/>
    </vehicle>
    <vehicle id="EW_car.72" type="car" depart="833.40">
        <route edges="-E1 -E0"/>
    </vehicle>
    <vehicle id="SN_car.71" type="car" depart="838.01">
        <route edges="-E2 E1"/>
    </vehicle>
    <vehicle id="WE_car.76" type="car" depart="839.19">
        <route edges="E0 E1"/>
    </vehicle>
    <vehicle id="EW_car.73" type="car" depart="844.98">
        <route edges="-E1 E2"/>
    </vehicle>
    <vehicle id="SN_car.72" type="car" depart="849.82">
        <route edges="-E2 -E0"/>
    </vehicle>
    <vehicle id="WE_car.77" type="car" depart="850.23">
        <route edges="E0 E2"/>
    </vehicle>
    <vehicle id="EW_car.74" type="car" depart="856.55">
        <route edges="-E1 E2"/>
    </vehicle>
    <vehicle id="WE_car.78" type="car" depart="861.28">
        <route edges="E0 E2"/>
    </vehicle>
    <vehicle id="SN_car.73" type="car" depart="861.62">
        <route edges="-E2 -E0"/>
    </vehicle>
    <vehicle id="EW_car.75" type="car" depart="868.13">
        <route edges="-E1 E2"/>
    </vehicle>
    <vehicle id="WE_car.79" type="car" depart="872.32">
        <route edges="E0 E1"/>
    </vehicle>
    <vehicle id="SN_car.74" type="car" depart="873.42">
        <route edges="-E2 -E0"/>
    </vehicle>
    <vehicle id="EW_car.76" type="car" depart="879.70">
        <route edges="-E1 E2"/>
    </vehicle>
    <vehicle id="WE_car.80" type="car" depart="883.36">
        <route edges="E0 E1"/>
    </vehicle>
    <vehicle id="SN_car.75" type="car" depart="885.23">
        <route edges="-E2 E1"/>
    </vehicle>
    <vehicle id="EW_car.77" type="car" depart="891.28">
        <route edges="-E1 E2"/>
    </vehicle>
    <vehicle id="WE_car.81" type="car" depart="894.40">
        <route edges="E0 E2"/>
    </vehicle>
    <vehicle id="SN_car.76" type="car" depart="897.03">
        <route edges="-E2 E1"/>
    </vehicle>
    <vehicle id="EW_car.78" type="car" depart="902.85">
        <route edges="-E1 E2"/>
    </vehicle>
    <vehicle id="WE_car.82" type="car" depart="905.44">
        <route edges="E0 E2"/>
    </vehicle>
    <vehicle id="SN_car.77" type="car" depart="908.83">
        <route edges="-E2 -E0"/>
    </vehicle>
    <vehicle id="EW_car.79" type="car" depart="914.43">
        <route edges="-E1 -E0"/>
    </vehicle>
    <vehicle id="WE_car.83" type="car" depart="916.49">
        <route edges="E0 E1"/>
    </vehicle>
    <vehicle id="SN_car.78" type="car" depart="920.63">
        <route edges="-E2 E1"/>
    </vehicle>
    <vehicle id="EW_car.80" type="car" depart="926.00">
        <route edges="-E1 -E0"/>
    </vehicle>
    <vehicle id="WE_car.84" type="car" depart="927.53">
        <route edges="E0 E1"/>
    </vehicle>
    <vehicle id="SN_car.79" type="car" depart="932.44">
        <route edges="-E2 -E0"/>
    </vehicle>
    <vehicle id="EW_car.81" type="car" depart="937.58">
        <route edges="-E1 E2"/>
    </vehicle>
    <vehicle id="WE_car.85" type="car" depart="938.57">
        <route edges="E0 E1"/>
    </vehicle>
    <vehicle id="SN_car.80" type="car" depart="944.24">
        <route edges="-E2 -E0"/>
    </vehicle>
    <vehicle id="EW_car.82" type="car" depart="949.15">
        <route edges="-E1 -E0"/>
    </vehicle>
    <vehicle id="WE_car.86" type="car" depart="949.61">
        <route edges="E0 E1"/>
    </vehicle>
    <vehicle id="SN_car.81" type="car" depart="956.04">
        <route edges="-E2 E1"/>
    </vehicle>
    <vehicle id="WE_car.87" type="car" depart="960.65">
        <route edges="E0 E2"/>
    </vehicle>
    <vehicle id="EW_car.83" type="car" depart="960.73">
        <route edges="-E1 E2"/>
    </vehicle>
    <vehicle id="SN_car.82" type="car" depart="967.85">
        <route edges="-E2 E1"/>
    </vehicle>
    <vehicle id="WE_car.88" type="car" depart="971.70">
        <route edges="E0 E1"/>
    </vehicle>
    <vehicle id="EW_car.84" type="car" depart="972.30">
        <route edges="-E1 E2"/>
    </vehicle>
    <vehicle id="SN_car.83" type="car" depart="979.65">
        <route edges="-E2 E1"/>
    </vehicle>
    <vehicle id="WE_car.89" type="car" depart="982.74">
        <route edges="E0 E1"/>
    </vehicle>
    <vehicle id="EW_car.85" type="car" depart="983.88">
        <route edges="-E1 E2"/>
    </vehicle>
    <vehicle id="SN_car.84" type="car" depart="991.45">
        <route edges="-E2 -E0"/>
    </vehicle>
    <vehicle id="WE_car.90" type="car" depart="993.78">
        <route edges="E0 E2"/>
    </vehicle>
    <vehicle id="EW_car.86" type="car" depart="995.45">
        <route edges="-E1 -E0"/>
    </vehicle>
    <vehicle id="SN_car.85" type="car" depart="1003.26">
        <route edges="-E2 -E0"/>
    </vehicle>
    <vehicle id="WE_car.91" type="car" depart="1004.82">
        <route edges="E0 E1"/>
    </vehicle>
    <vehicle id="EW_car.87" type="car" depart="1007.03">
        <route edges="-E1 E2"/>
    </vehicle>
    <vehicle id="SN_car.86" type="car" depart="1015.06">
        <route edges="-E2 E1"/>
    </vehicle>
    <vehicle id="WE_car.92" type="car" depart="1015.86">
        <route edges="E0 E1"/>
    </vehicle>
    <vehicle id="EW_car.88" type="car" depart="1018.60">
        <route edges="-E1 E2"/>
    </vehicle>
    <vehicle id="SN_car.87" type="car" depart="1026.86">
        <route edges="-E2 E1"/>
    </vehicle>
    <vehicle id="WE_car.93" type="car" depart="1026.91">
        <route edges="E0 E2"/>
    </vehicle>
    <vehicle id="EW_car.89" type="car" depart="1030.18">
        <route edges="-E1 -E0"/>
    </vehicle>
    <vehicle id="WE_car.94" type="car" depart="1037.95">
        <route edges="E0 E2"/>
    </vehicle>
    <vehicle id="SN_car.88" type="car" depart="1038.66">
        <route edges="-E2 E1"/>
    </vehicle>
    <vehicle id="EW_car.90" type="car" depart="1041.75">
        <route edges="-E1 -E0"/>
    </vehicle>
    <vehicle id="WE_car.95" type="car" depart="1048.99">
        <route edges="E0 E1"/>
    </vehicle>
    <vehicle id="SN_car.89" type="car" depart="1050.47">
        <route edges="-E2 E1"/>
    </vehicle>
    <vehicle id="EW_car.91" type="car" depart="1053.33">
        <route edges="-E1 E2"/>
    </vehicle>
    <vehicle id="WE_car.96" type="car" depart="1060.03">
        <route edges="E0 E2"/>
    </vehicle>
    <vehicle id="SN_car.90" type="car" depart="1062.27">
        <route edges="-E2 E1"/>
    </vehicle>
    <vehicle id="EW_car.92" type="car" depart="1064.90">
        <route edges="-E1 -E0"/>
    </vehicle>
    <vehicle id="WE_car.97" type="car" depart="1071.07">
        <route edges="E0 E2"/>
    </vehicle>
    <vehicle id="SN_car.91" type="car" depart="1074.07">
        <route edges="-E2 E1"/>
    </vehicle>
    <vehicle id="EW_car.93" type="car" depart="1076.48">
        <route edges="-E1 E2"/>