<?xml version="1.0" encoding="UTF-8"?>

<!-- generated on 2026-05-23 18:17:12 by Eclipse SUMO netedit Version 1.13.0
<configuration xmlns:xsi="http://www.w3.org/2001/XMLSchema-instance" xsi:noNamespaceSchemaLocation="http://sumo.dlr.de/xsd/netconvertConfiguration.xsd">

    <input>
        <sumo-net-file value="C:\Users\Administrator\Desktop\0523\3\3.net.xml"/>
    </input>

    <output>
        <output-file value="C:\Users\Administrator\Desktop\0523\3\3.net.xml"/>
    </output>

    <processing>
        <geometry.min-radius.fix.railways value="false"/>
        <geometry.max-grade.fix value="false"/>
        <offset.disable-normalization value="true"/>
        <lefthand value="false"/>
    </processing>

    <junctions>
        <no-turnarounds value="true"/>
        <junctions.corner-detail value="5"/>
        <junctions.limit-turn-speed value="5.5"/>
        <rectangular-lane-cut value="false"/>
    </junctions>

    <pedestrian>
        <walkingareas value="false"/>
    </pedestrian>

    <report>
        <aggregate-warnings value="5"/>
    </report>

</configuration>
-->

<net version="1.9" junctionCornerDetail="5" limitTurnSpeed="5.50" xmlns:xsi="http://www.w3.org/2001/XMLSchema-instance" xsi:noNamespaceSchemaLocation="http://sumo.dlr.de/xsd/net_file.xsd">

    <location netOffset="0.00,0.00" convBoundary="-484.00,-116.44,478.83,207.40" origBoundary="-10000000000.00,-10000000000.00,10000000000.00,10000000000.00" projParameter="!"/>

    <edge id=":J1_0" function="internal">
        <lane id=":J1_0_0" index="0" speed="6.36" length="9.04" shape="-68.58,-102.47 -68.93,-104.96 -70.00,-106.68 -71.77,-107.63 -74.26,-107.82"/>
    </edge>
    <edge id=":J1_1" function="internal">
        <lane id=":J1_1_0" index="0" speed="10.40" length="25.05" shape="-65.38,-102.47 -64.62,-110.73 -62.37,-116.60 -58.62,-120.08 -53.38,-121.16"/>
        <lane id=":J1_1_1" index="1" speed="9.84" length="22.32" shape="-65.38,-102.47 -64.63,-109.33 -62.37,-114.20 -58.62,-117.08 -53.38,-117.96"/>
    </edge>
    <edge id=":J1_3" function="internal">
        <lane id=":J1_3_0" index="0" speed="6.55" length="9.31" shape="-53.38,-108.36 -55.83,-108.03 -57.58,-106.94 -58.63,-105.08 -58.98,-102.46"/>
    </edge>
    <edge id=":J1_4" function="internal">
        <lane id=":J1_4_0" index="0" speed="13.89" length="21.14" shape="-53.38,-111.56 -74.43,-111.02"/>
        <lane id=":J1_4_1" index="1" speed="13.89" length="21.14" shape="-53.38,-114.76 -74.60,-114.21"/>
    </edge>
    <edge id=":J1_6" function="internal">
        <lane id=":J1_6_0" index="0" speed="13.89" length="21.66" shape="-75.12,-123.80 -53.38,-124.36"/>
        <lane id=":J1_6_1" index="1" speed="13.89" length="21.66" shape="-74.95,-120.61 -53.38,-121.16"/>
    </edge>
    <edge id=":J1_8" function="internal">
        <lane id=":J1_8_0" index="0" speed="9.72" length="22.55" shape="-74.77,-117.41 -69.26,-116.79 -65.32,-114.10 -62.96,-109.32 -62.18,-102.47"/>
    </edge>

    <edge id="-E0" from="J1" to="J0" priority="-1" shape="-63.77,-116.44 -65.25,-116.36 -66.73,-116.29 -68.21,-116.21 -69.69,-116.12 -71.17,-116.03 -72.65,-115.94 -74.13,-115.85 -75.62,-115.75 -77.10,-115.65 -78.58,-115.54 -80.07,-115.44 -81.56,-115.32 -83.04,-115.21 -84.53,-115.09 -86.02,-114.97 -87.51,-114.85 -89.01,-114.72 -90.50,-114.59 -92.00,-114.45 -93.49,-114.31 -94.99,-114.17 -96.49,-114.03 -97.99,-113.88 -99.49,-113.73 -101.00,-113.57 -102.51,-113.41 -104.01,-113.25 -105.52,-113.09 -107.04,-112.92 -108.55,-112.74 -110.06,-112.57 -111.58,-112.39 -113.10,-112.21 -114.62,-112.02 -116.15,-111.83 -117.67,-111.63 -119.20,-111.44 -120.73,-111.24 -122.27,-111.03 -123.80,-110.82 -125.34,-110.61 -126.88,-110.39 -128.43,-110.18 -129.97,-109.95 -131.52,-109.73 -133.08,-109.50 -134.63,-109.26 -136.19,-109.02 -137.75,-108.78 -139.31,-108.54 -140.88,-108.29 -142.45,-108.04 -144.02,-107.78 -145.60,-107.52 -147.18,-107.26 -148.76,-106.99 -150.35,-106.72 -151.94,-106.44 -153.53,-106.16 -155.12,-105.88 -156.73,-105.59 -158.33,-105.30 -159.94,-105.01 -161.55,-104.71 -163.16,-104.41 -164.78,-104.10 -166.40,-103.79 -168.03,-103.48 -169.66,-103.16 -171.30,-102.84 -172.93,-102.52 -174.58,-102.19 -176.22,-101.85 -177.87,-101.52 -179.53,-101.18 -181.19,-100.83 -182.85,-100.48 -184.52,-100.13 -186.20,-99.77 -187.88,-99.41 -189.56,-99.05 -191.25,-98.68 -192.94,-98.30 -194.63,-97.93 -196.34,-97.55 -198.04,-97.16 -199.75,-96.77 -201.47,-96.38 -203.19,-95.98 -204.92,-95.58 -206.65,-95.17 -208.39,-94.76 -210.13,-94.35 -211.88,-93.93 -213.63,-93.51 -215.39,-93.08 -217.15,-92.65 -218.92,-92.21 -220.70,-91.77 -222.48,-91.33 -224.26,-90.88 -226.05,-90.43 -227.85,-89.98 -229.65,-89.51 -231.46,-89.05 -233.28,-88.58 -235.10,-88.11 -236.93,-87.63 -238.76,-87.15 -240.60,-86.66 -242.45,-86.17 -244.30,-85.68 -246.16,-85.18 -248.02,-84.67 -249.89,-84.17 -251.77,-83.65 -253.65,-83.14 -255.55,-82.62 -257.44,-82.09 -259.35,-81.56 -261.26,-81.03 -263.17,-80.49 -265.10,-79.94 -267.03,-79.40 -268.97,-78.84 -270.91,-78.29 -272.87,-77.73 -274.82,-77.16 -276.79,-76.59 -278.76,-76.02 -280.75,-75.44 -282.73,-74.85 -284.73,-74.27 -286.73,-73.67 -288.74,-73.08 -290.76,-72.47 -292.79,-71.87 -294.82,-71.26 -296.86,-70.64 -298.91,-70.02 -300.96,-69.39 -303.03,-68.76 -305.10,-68.13 -307.18,-67.49 -309.27,-66.85 -311.36,-66.20 -313.47,-65.55 -315.58,-64.89 -317.70,-64.23 -319.83,-63.56 -321.97,-62.89 -324.11,-62.21 -326.27,-61.53 -328.43,-60.84 -330.60,-60.15 -332.78,-59.46 -334.97,-58.76 -337.16,-58.05 -339.37,-57.34 -341.58,-56.63 -343.80,-55.91 -346.04,-55.18 -348.28,-54.45 -350.53,-53.72 -352.79,-52.98 -355.05,-52.24 -357.33,-51.49 -359.62,-50.73 -361.91,-49.97 -364.22,-49.21 -366.53,-48.44 -368.85,-47.67 -371.19,-46.89 -373.53,-46.11 -375.88,-45.32 -378.24,-44.52 -380.61,-43.73 -383.00,-42.92 -385.39,-42.11 -387.79,-41.30 -390.20,-40.48 -392.62,-39.66 -395.05,-38.83 -397.49,-38.00 -399.94,-37.16 -402.40,-36.31 -404.87,-35.46 -407.35,-34.61 -409.84,-33.75 -412.35,-32.89 -414.86,-32.02 -417.38,-31.14 -419.91,-30.26 -422.46,-29.38 -425.01,-28.49 -427.58,-27.59 -430.15,-26.69 -432.74,-25.79 -435.34,-24.88 -437.94,-23.96 -440.56,-23.04 -443.19,-22.11 -445.83,-21.18 -448.49,-20.24 -451.15,-19.30 -453.83,-18.36 -456.51,-17.40 -459.21,-16.44 -461.92,-15.48 -464.64,-14.51 -467.37,-13.54 -470.11,-12.56 -472.87,-11.57 -475.63,-10.58 -478.41,-9.59 -481.20,-8.59 -484.00,-7.58">
        <lane id="-E0_0" index="0" speed="13.89" length="423.32" shape="-74.26,-107.82 -75.08,-107.77 -76.53,-107.67 -78.02,-107.56 -79.48,-107.46 -80.94,-107.34 -82.42,-107.23 -83.89,-107.12 -85.38,-107.00 -86.84,-106.88 -88.32,-106.75 -89.78,-106.62 -91.25,-106.48 -92.74,-106.34 -94.25,-106.20 -95.72,-106.07 -97.19,-105.92 -98.67,-105.77 -100.16,-105.61 -101.66,-105.45 -103.16,-105.29 -104.65,-105.14 -106.12,-104.97 -107.63,-104.79 -109.14,-104.62 -110.64,-104.45 -112.13,-104.27 -113.63,-104.08 -115.14,-103.89 -116.66,-103.69 -118.19,-103.50 -119.67,-103.31 -121.19,-103.10 -122.72,-102.89 -124.23,-102.69 -125.78,-102.47 -127.30,-102.26 -128.82,-102.03 -130.37,-101.81 -131.88,-101.59 -133.41,-101.35 -134.97,-101.11 -136.53,-100.87 -138.07,-100.64 -139.62,-100.39 -141.17,-100.14 -142.72,-99.89 -144.30,-99.63 -145.86,-99.37 -147.42,-99.10 -148.99,-98.84 -150.55,-98.56 -152.14,-98.28 -153.72,-98.00 -155.31,-97.72 -156.91,-97.43 -158.50,-97.14 -160.08,-96.85 -161.68,-96.55 -163.28,-96.24 -164.90,-95.93 -166.51,-95.63 -168.12,-95.31 -169.76,-94.99 -171.37,-94.67 -172.98,-94.35 -174.62,-94.01 -176.28,-93.68 -177.90,-93.35 -179.54,-93.00 -181.20,-92.65 -182.86,-92.30 -184.52,-91.95 -186.20,-91.59 -187.87,-91.23 -189.52,-90.87 -191.21,-90.49 -192.91,-90.12 -194.58,-89.75 -196.26,-89.36 -197.98,-88.97 -199.68,-88.58 -201.38,-88.19 -203.10,-87.79 -204.81,-87.38 -206.56,-86.97 -208.28,-86.57 -210.01,-86.15 -211.75,-85.73 -213.49,-85.31 -215.24,-84.88 -217.00,-84.45 -218.78,-84.00 -220.54,-83.57 -222.30,-83.12 -224.10,-82.67 -225.87,-82.23 -227.65,-81.76 -229.47,-81.30 -231.28,-80.83 -233.08,-80.37 -234.90,-79.89 -236.72,-79.42 -238.55,-78.93 -240.40,-78.44 -242.24,-77.95 -244.06,-77.46 -245.93,-76.95 -247.79,-76.45 -249.66,-75.93 -251.55,-75.42 -253.41,-74.91 -255.29,-74.38 -257.21,-73.85 -259.10,-73.33 -260.99,-72.79 -262.93,-72.24 -264.84,-71.70 -266.77,-71.15 -268.72,-70.60 -270.65,-70.04 -272.59,-69.48 -274.57,-68.91 -276.53,-68.34 -278.49,-67.77 -280.47,-67.17 -282.47,-66.60 -284.45,-66.00 -286.46,-65.41 -288.47,-64.80 -290.51,-64.20 -292.51,-63.60 -294.54,-62.98 -296.58,-62.37 -298.62,-61.74 -300.70,-61.11 -302.76,-60.48 -304.83,-59.84 -306.91,-59.21 -308.99,-58.56 -311.10,-57.91 -313.20,-57.25 -315.31,-56.60 -317.43,-55.93 -319.56,-55.26 -321.70,-54.58 -323.85,-53.90 -326.00,-53.22 -328.18,-52.52 -330.36,-51.84 -332.52,-51.14 -334.70,-50.44 -336.92,-49.72 -339.12,-49.02 -341.33,-48.30 -343.56,-47.57 -345.81,-46.84 -348.05,-46.11 -350.30,-45.38 -352.56,-44.64 -354.82,-43.89 -357.10,-43.14 -359.40,-42.37 -361.70,-41.62 -364.01,-40.85 -366.33,-40.08 -368.66,-39.30 -370.99,-38.52 -373.32,-37.74 -375.69,-36.94 -378.06,-36.15 -380.43,-35.34 -382.83,-34.53 -385.22,-33.72 -387.63,-32.90 -390.04,-32.09 -392.47,-31.26 -394.90,-30.43 -397.34,-29.60 -399.79,-28.75 -402.27,-27.89 -404.75,-27.05 -407.24,-26.19 -409.74,-25.33 -412.23,-24.46 -414.75,-23.59 -417.29,-22.70 -419.84,-21.82 -422.37,-20.94 -424.94,-20.04 -427.52,-19.14 -430.11,-18.24 -432.68,-17.33 -435.28,-16.42 -437.90,-15.49 -440.53,-14.57 -443.17,-13.64 -445.82,-12.70 -448.49,-11.75 -451.16,-10.82 -453.82,-9.87 -456.53,-8.90 -459.24,-7.94 -461.96,-6.97 -464.68,-6.00 -467.41,-5.03 -470.17,-4.04 -472.94,-3.05 -475.72,-2.06 -478.49,-1.06 -481.29,-0.05"/>
        <lane id="-E0_1" index="1" speed="13.89" length="423.32" shape="-74.43,-111.02 -75.30,-110.96 -76.76,-110.86 -78.24,-110.75 -79.72,-110.65 -81.19,-110.53 -82.67,-110.42 -84.14,-110.31 -85.63,-110.19 -87.11,-110.07 -88.59,-109.94 -90.07,-109.81 -91.55,-109.67 -93.04,-109.53 -94.54,-109.39 -96.03,-109.25 -97.51,-109.10 -99.00,-108.96 -100.49,-108.80 -102.00,-108.64 -103.50,-108.48 -105.00,-108.32 -106.49,-108.15 -108.00,-107.97 -109.51,-107.80 -111.02,-107.62 -112.52,-107.45 -114.03,-107.26 -115.54,-107.07 -117.06,-106.87 -118.59,-106.68 -120.09,-106.48 -121.62,-106.27 -123.15,-106.06 -124.68,-105.86 -126.22,-105.64 -127.75,-105.43 -129.28,-105.20 -130.83,-104.98 -132.36,-104.75 -133.90,-104.52 -135.46,-104.28 -137.02,-104.04 -138.57,-103.80 -140.13,-103.55 -141.68,-103.30 -143.24,-103.04 -144.82,-102.78 -146.39,-102.53 -147.95,-102.26 -149.53,-101.99 -151.11,-101.71 -152.70,-101.43 -154.28,-101.15 -155.88,-100.87 -157.48,-100.58 -159.07,-100.29 -160.67,-99.99 -162.27,-99.69 -163.88,-99.39 -165.50,-99.08 -167.12,-98.77 -168.74,-98.45 -170.38,-98.13 -172.00,-97.81 -173.62,-97.49 -175.26,-97.15 -176.92,-96.82 -178.55,-96.48 -180.20,-96.13 -181.86,-95.78 -183.52,-95.43 -185.19,-95.08 -186.87,-94.72 -188.54,-94.36 -190.21,-93.99 -191.90,-93.61 -193.60,-93.24 -195.28,-92.87 -196.97,-92.48 -198.69,-92.09 -200.40,-91.70 -202.11,-91.30 -203.83,-90.91 -205.55,-90.50 -207.29,-90.09 -209.02,-89.68 -210.76,-89.26 -212.50,-88.84 -214.25,-88.42 -216.00,-87.99 -217.77,-87.55 -219.55,-87.11 -221.32,-86.67 -223.09,-86.23 -224.88,-85.77 -226.66,-85.33 -228.45,-84.86 -230.27,-84.40 -232.08,-83.93 -233.89,-83.46 -235.71,-82.99 -237.53,-82.51 -239.37,-82.02 -241.22,-81.53 -243.06,-81.04 -244.90,-80.55 -246.77,-80.04 -248.63,-79.54 -250.50,-79.02 -252.39,-78.51 -254.27,-77.99 -256.15,-77.47 -258.07,-76.93 -259.97,-76.41 -261.86,-75.87 -263.80,-75.32 -265.72,-74.78 -267.65,-74.23 -269.60,-73.67 -271.54,-73.12 -273.48,-72.55 -275.46,-71.98 -277.42,-71.41 -279.39,-70.84 -281.38,-70.24 -283.37,-69.67 -285.36,-69.07 -287.37,-68.48 -289.39,-67.87 -291.42,-67.27 -293.43,-66.67 -295.47,-66.05 -297.51,-65.43 -299.56,-64.80 -301.63,-64.17 -303.70,-63.54 -305.77,-62.90 -307.85,-62.26 -309.94,-61.61 -312.05,-60.97 -314.15,-60.31 -316.27,-59.65 -318.39,-58.98 -320.53,-58.31 -322.66,-57.63 -324.82,-56.95 -326.97,-56.27 -329.15,-55.57 -331.33,-54.89 -333.50,-54.19 -335.69,-53.48 -337.90,-52.77 -340.11,-52.06 -342.32,-51.35 -344.55,-50.62 -346.80,-49.89 -349.04,-49.16 -351.30,-48.42 -353.55,-47.68 -355.82,-46.93 -358.11,-46.17 -360.40,-45.41 -362.71,-44.65 -365.02,-43.89 -367.34,-43.12 -369.67,-42.34 -372.01,-41.56 -374.34,-40.77 -376.71,-39.97 -379.08,-39.18 -381.46,-38.37 -383.85,-37.56 -386.25,-36.75 -388.66,-35.93 -391.07,-35.12 -393.50,-34.29 -395.94,-33.46 -398.38,-32.62 -400.84,-31.77 -403.31,-30.92 -405.79,-30.07 -408.28,-29.21 -410.79,-28.35 -413.28,-27.49 -415.80,-26.61 -418.34,-25.72 -420.89,-24.85 -423.43,-23.96 -425.99,-23.06 -428.57,-22.16 -431.16,-21.26 -433.75,-20.35 -436.34,-19.43 -438.96,-18.51 -441.59,-17.58 -444.23,-16.65 -446.89,-15.71 -449.56,-14.77 -452.23,-13.84 -454.90,-12.88 -457.60,-11.92 -460.31,-10.96 -463.03,-9.99 -465.76,-9.02 -468.49,-8.04 -471.25,-7.05 -474.01,-6.06 -476.80,-5.07 -479.58,-4.07 -482.37,-3.06"/>
        <lane id="-E0_2" index="2" speed="13.89" length="423.32" shape="-74.60,-114.21 -75.51,-114.15 -76.99,-114.05 -78.47,-113.94 -79.95,-113.84 -81.44,-113.72 -82.92,-113.61 -84.40,-113.50 -85.89,-113.38 -87.38,-113.26 -88.87,-113.13 -90.36,-113.00 -91.85,-112.86 -93.34,-112.72 -94.84,-112.58 -96.34,-112.44 -97.83,-112.29 -99.33,-112.14 -100.83,-111.98 -102.34,-111.82 -103.84,-111.66 -105.35,-111.50 -106.86,-111.33 -108.37,-111.15 -109.88,-110.98 -111.39,-110.80 -112.91,-110.62 -114.42,-110.43 -115.95,-110.24 -117.47,-110.04 -119.00,-109.85 -120.52,-109.65 -122.05,-109.44 -123.58,-109.23 -125.12,-109.03 -126.66,-108.81 -128.20,-108.60 -129.74,-108.37 -131.29,-108.15 -132.84,-107.92 -134.39,-107.68 -135.95,-107.44 -137.51,-107.20 -139.06,-106.96 -140.63,-106.71 -142.19,-106.46 -143.76,-106.20 -145.34,-105.94 -146.92,-105.68 -148.49,-105.41 -150.08,-105.14 -151.66,-104.86 -153.25,-104.58 -154.84,-104.30 -156.45,-104.02 -158.05,-103.73 -159.65,-103.44 -161.26,-103.14 -162.86,-102.84 -164.48,-102.53 -166.10,-102.22 -167.73,-101.91 -169.35,-101.59 -170.99,-101.27 -172.62,-100.95 -174.26,-100.62 -175.90,-100.28 -177.55,-99.95 -179.20,-99.61 -180.86,-99.26 -182.52,-98.91 -184.19,-98.56 -185.86,-98.21 -187.54,-97.85 -189.22,-97.49 -190.90,-97.12 -192.59,-96.74 -194.29,-96.37 -195.99,-95.99 -197.68,-95.60 -199.40,-95.21 -201.11,-94.82 -202.83,-94.42 -204.56,-94.02 -206.28,-93.61 -208.02,-93.20 -209.76,-92.79 -211.51,-92.37 -213.25,-91.95 -215.01,-91.53 -216.77,-91.10 -218.54,-90.66 -220.32,-90.22 -222.09,-89.78 -223.87,-89.33 -225.66,-88.88 -227.45,-88.43 -229.25,-87.96 -231.06,-87.50 -232.88,-87.03 -234.70,-86.56 -236.52,-86.08 -238.35,-85.60 -240.19,-85.11 -242.04,-84.62 -243.89,-84.13 -245.74,-83.64 -247.60,-83.13 -249.47,-82.63 -251.35,-82.11 -253.23,-81.60 -255.12,-81.08 -257.01,-80.55 -258.92,-80.02 -260.83,-79.49 -262.73,-78.95 -264.67,-78.40 -266.59,-77.86 -268.53,-77.30 -270.47,-76.75 -272.43,-76.19 -274.37,-75.62 -276.35,-75.05 -278.31,-74.48 -280.30,-73.91 -282.28,-73.31 -284.28,-72.74 -286.27,-72.14 -288.28,-71.55 -290.30,-70.94 -292.33,-70.34 -294.36,-69.73 -296.40,-69.11 -298.44,-68.49 -300.49,-67.86 -302.56,-67.23 -304.63,-66.60 -306.71,-65.96 -308.80,-65.32 -310.89,-64.67 -313.00,-64.02 -315.10,-63.36 -317.22,-62.70 -319.35,-62.03 -321.49,-61.36 -323.63,-60.68 -325.79,-60.00 -327.94,-59.32 -330.12,-58.62 -332.30,-57.94 -334.48,-57.24 -336.67,-56.53 -338.88,-55.82 -341.09,-55.11 -343.31,-54.39 -345.54,-53.66 -347.79,-52.93 -350.03,-52.20 -352.29,-51.46 -354.55,-50.72 -356.83,-49.97 -359.12,-49.21 -361.41,-48.45 -363.72,-47.69 -366.03,-46.92 -368.35,-46.15 -370.68,-45.37 -373.02,-44.59 -375.37,-43.80 -377.73,-43.00 -380.10,-42.21 -382.49,-41.40 -384.88,-40.59 -387.28,-39.78 -389.69,-38.96 -392.10,-38.15 -394.53,-37.32 -396.97,-36.49 -399.42,-35.65 -401.88,-34.80 -404.35,-33.95 -406.83,-33.10 -409.32,-32.24 -411.83,-31.38 -414.33,-30.51 -416.85,-29.63 -419.39,-28.75 -421.94,-27.87 -424.48,-26.98 -427.05,-26.08 -429.62,-25.18 -432.21,-24.28 -434.81,-23.37 -437.41,-22.45 -440.03,-21.53 -442.66,-20.60 -445.30,-19.67 -447.96,-18.73 -450.62,-17.79 -453.30,-16.85 -455.97,-15.89 -458.67,-14.93 -461.38,-13.97 -464.10,-13.00 -466.83,-12.03 -469.57,-11.05 -472.33,-10.06 -475.09,-9.07 -477.87,-8.08 -480.66,-7.08 -483.46,-6.07"/>
    </edge>
    <edge id="-E1" from="J2" to="J1" priority="-1" shape="478.83,-4.21 475.07,-5.22 471.34,-6.23 467.62,-7.23 463.92,-8.22 460.24,-9.21 456.58,-10.19 452.94,-11.17 449.32,-12.14 445.71,-13.11 442.13,-14.07 438.56,-15.02 435.02,-15.97 431.49,-16.91 427.98,-17.85 424.48,-18.78 421.01,-19.70 417.55,-20.62 414.12,-21.54 410.70,-22.45 407.30,-23.35 403.91,-24.25 400.55,-25.14 397.20,-26.03 393.87,-26.91 390.56,-27.78 387.27,-28.65 383.99,-29.52 380.73,-30.38 377.49,-31.23 374.27,-32.08 371.06,-32.92 367.87,-33.76 364.70,-34.59 361.55,-35.42 358.41,-36.24 355.29,-37.05 352.18,-37.87 349.10,-38.67 346.02,-39.47 342.97,-40.27 339.93,-41.06 336.91,-41.84 333.91,-42.62 330.92,-43.39 327.95,-44.16 325.00,-44.93 322.06,-45.68 319.14,-46.44 316.23,-47.19 313.34,-47.93 310.46,-48.67 307.61,-49.40 304.76,-50.13 301.94,-50.85 299.12,-51.57 296.33,-52.28 293.55,-52.99 290.78,-53.69 288.04,-54.39 285.30,-55.08 282.58,-55.77 279.88,-56.46 277.19,-57.13 274.52,-57.81 271.86,-58.48 269.22,-59.14 266.59,-59.80 263.97,-60.45 261.38,-61.10 258.79,-61.75 256.22,-62.39 253.67,-63.02 251.13,-63.65 248.60,-64.28 246.09,-64.90 243.59,-65.52 241.11,-66.13 238.64,-66.73 236.18,-67.34 233.74,-67.93 231.31,-68.53 228.90,-69.12 226.50,-69.70 224.11,-70.28 221.74,-70.85 219.38,-71.42 217.03,-71.99 214.70,-72.55 212.38,-73.11 210.08,-73.66 207.78,-74.21 205.50,-74.75 203.24,-75.29 200.98,-75.83 198.74,-76.36 196.52,-76.88 194.30,-77.41 192.10,-77.92 189.91,-78.44 187.73,-78.94 185.57,-79.45 183.42,-79.95 181.28,-80.45 179.15,-80.94 177.04,-81.42 174.93,-81.91 172.84,-82.39 170.76,-82.86 168.70,-83.33 166.64,-83.80 164.60,-84.26 162.57,-84.72 160.55,-85.18 158.54,-85.63 156.55,-86.07 154.56,-86.51 152.59,-86.95 150.63,-87.39 148.68,-87.82 146.74,-88.24 144.81,-88.67 142.89,-89.08 140.99,-89.50 139.09,-89.91 137.21,-90.32 135.33,-90.72 133.47,-91.12 131.62,-91.51 129.78,-91.90 127.95,-92.29 126.12,-92.67 124.31,-93.05 122.51,-93.43 120.73,-93.80 118.95,-94.17 117.18,-94.54 115.42,-94.90 113.67,-95.26 111.93,-95.61 110.20,-95.96 108.48,-96.31 106.77,-96.65 105.07,-96.99 103.38,-97.32 101.70,-97.66 100.03,-97.98 98.36,-98.31 96.71,-98.63 95.07,-98.95 93.43,-99.26 91.81,-99.57 90.19,-99.88 88.58,-100.19 86.98,-100.49 85.39,-100.78 83.81,-101.08 82.24,-101.37 80.67,-101.66 79.12,-101.94 77.57,-102.22 76.03,-102.50 74.50,-102.77 72.98,-103.04 71.47,-103.31 69.96,-103.57 68.46,-103.83 66.97,-104.09 65.49,-104.35 64.02,-104.60 62.55,-104.85 61.09,-105.09 59.64,-105.33 58.20,-105.57 56.76,-105.81 55.34,-106.04 53.92,-106.27 52.50,-106.49 51.10,-106.72 49.70,-106.94 48.30,-107.16 46.92,-107.37 45.54,-107.58 44.17,-107.79 42.81,-107.99 41.45,-108.20 40.10,-108.40 38.75,-108.59 37.41,-108.79 36.08,-108.98 34.76,-109.17 33.44,-109.35 32.13,-109.53 30.82,-109.71 29.52,-109.89 28.23,-110.06 26.94,-110.24 25.66,-110.40 24.38,-110.57 23.11,-110.73 21.85,-110.89 20.59,-111.05 19.34,-111.21 18.09,-111.36 16.84,-111.51 15.61,-111.66 14.38,-111.80 13.15,-111.94 11.93,-112.08 10.71,-112.22 9.50,-112.35 8.30,-112.48 7.09,-112.61 5.90,-112.74 4.71,-112.87 3.52,-112.99 2.34,-113.11 1.16,-113.22 -0.01,-113.34 -1.18,-113.45 -2.35,-113.56 -3.51,-113.67 -4.66,-113.77 -5.82,-113.88 -6.96,-113.98 -8.11,-114.08 -9.25,-114.17 -10.38,-114.27 -11.52,-114.36 -12.64,-114.45 -13.77,-114.53 -14.89,-114.62 -16.01,-114.70 -17.12,-114.78 -18.23,-114.86 -19.34,-114.94 -20.45,-115.01 -21.55,-115.08 -22.64,-115.16 -23.74,-115.22 -24.83,-115.29 -25.92,-115.35 -27.01,-115.42 -28.09,-115.48 -29.17,-115.53 -30.25,-115.59 -31.32,-115.64 -32.40,-115.70 -33.47,-115.75 -34.54,-115.79 -35.60,-115.84 -36.67,-115.88 -37.73,-115.93 -38.79,-115.97 -39.84,-116.01 -40.90,-116.04 -41.95,-116.08 -43.01,-116.11 -44.06,-116.15 -45.10,-116.18 -46.15,-116.20 -47.20,-116.23 -48.24,-116.26 -49.28,-116.28 -50.32,-116.30 -51.36,-116.32 -52.40,-116.34 -53.44,-116.36 -54.48,-116.37 -55.51,-116.39 -56.55,-116.40 -57.58,-116.41 -58.61,-116.42 -59.65,-116.42 -60.68,-116.43 -61.71,-116.44 -62.74,-116.44 -63.77,-116.44">
        <lane id="-E1_0" index="0" speed="13.89" length="543.76" shape="476.75,3.52 472.99,2.50 469.26,1.49 465.55,0.50 461.85,-0.49 458.17,-1.48 454.51,-2.46 450.86,-3.44 447.25,-4.41 443.64,-5.38 440.07,-6.34 436.49,-7.29 432.95,-8.24 429.43,-9.18 425.92,-10.12 422.43,-11.05 418.96,-11.97 415.49,-12.89 412.06,-13.81 408.65,-14.72 405.25,-15.62 401.86,-16.52 398.50,-17.41 395.15,-18.30 391.83,-19.17 388.52,-20.04 385.22,-20.92 381.94,-21.79 378.69,-22.64 375.45,-23.49 372.24,-24.34 369.03,-25.18 365.84,-26.02 362.67,-26.85 359.52,-27.68 356.39,-28.50 353.27,-29.31 350.15,-30.13 347.09,-30.93 344.00,-31.73 340.95,-32.53 337.92,-33.32 334.90,-34.10 331.91,-34.88 328.92,-35.64 325.94,-36.42 323.00,-37.18 320.06,-37.93 317.13,-38.70 314.24,-39.44 311.35,-40.18 308.47,-40.92 305.62,-41.65 302.78,-42.38 299.96,-43.10 297.14,-43.82 294.35,-44.53 291.58,-45.24 288.81,-45.94 286.07,-46.64 283.34,-47.32 280.61,-48.02 277.92,-48.70 275.24,-49.37 272.56,-50.05 269.91,-50.72 267.28,-51.38 264.65,-52.04 262.03,-52.69 259.43,-53.34 256.85,-53.99 254.29,-54.63 251.75,-55.25 249.20,-55.89 246.67,-56.52 244.17,-57.13 241.67,-57.75 239.21,-58.36 236.73,-58.96 234.28,-59.57 231.84,-60.16 229.40,-60.76 227.01,-61.35 224.62,-61.92 222.23,-62.50 219.87,-63.07 217.50,-63.64 215.15,-64.21 212.83,-64.77 210.51,-65.33 208.22,-65.88 205.93,-66.43 203.65,-66.97 201.38,-67.51 199.13,-68.05 196.91,-68.57 194.68,-69.09 192.47,-69.62 190.27,-70.13 188.09,-70.65 185.92,-71.15 183.74,-71.66 181.60,-72.16 179.47,-72.66 177.37,-73.14 175.25,-73.62 173.13,-74.12 171.06,-74.59 168.99,-75.06 166.92,-75.53 164.87,-76.00 162.84,-76.46 160.80,-76.92 158.79,-77.38 156.80,-77.82 154.82,-78.26 152.82,-78.70 150.84,-79.14 148.89,-79.58 146.97,-80.00 145.02,-80.43 143.10,-80.85 141.19,-81.26 139.28,-81.68 137.39,-82.09 135.53,-82.50 133.66,-82.90 131.80,-83.30 129.97,-83.68 128.12,-84.07 126.30,-84.46 124.48,-84.84 122.66,-85.22 120.87,-85.60 119.10,-85.97 117.32,-86.34 115.56,-86.71 113.81,-87.06 112.08,-87.42 110.35,-87.77 108.61,-88.12 106.90,-88.47 105.21,-88.80 103.52,-89.14 101.82,-89.47 100.15,-89.81 98.50,-90.13 96.82,-90.46 95.18,-90.78 93.56,-91.09 91.94,-91.40 90.31,-91.71 88.68,-92.02 87.09,-92.33 85.53,-92.62 83.93,-92.92 82.34,-93.22 80.79,-93.50 79.23,-93.79 77.70,-94.07 76.14,-94.35 74.62,-94.63 73.11,-94.89 71.58,-95.16 70.09,-95.43 68.60,-95.69 67.09,-95.95 65.59,-96.21 64.13,-96.47 62.68,-96.71 61.23,-96.96 59.79,-97.20 58.33,-97.44 56.88,-97.68 55.46,-97.92 54.06,-98.14 52.67,-98.37 51.24,-98.59 49.83,-98.82 48.46,-99.04 47.08,-99.25 45.72,-99.46 44.33,-99.67 42.98,-99.88 41.62,-100.08 40.25,-100.29 38.96,-100.48 37.60,-100.67 36.25,-100.87 34.94,-101.06 33.65,-101.25 32.36,-101.42 31.04,-101.60 29.73,-101.79 28.45,-101.96 27.15,-102.13 25.89,-102.31 24.64,-102.47 23.35,-102.64 22.11,-102.79 20.84,-102.95 19.58,-103.11 18.36,-103.27 17.14,-103.42 15.88,-103.57 14.67,-103.72 13.48,-103.85 12.24,-103.99 11.02,-104.13 9.83,-104.27 8.64,-104.40 7.44,-104.53 6.23,-104.66 5.03,-104.79 3.87,-104.91 2.71,-105.03 1.56,-105.15 0.38,-105.26 -0.79,-105.38 -1.93,-105.49 -3.10,-105.60 -4.23,-105.70 -5.38,-105.80 -6.55,-105.91 -7.66,-106.01 -8.77,-106.11 -9.92,-106.20 -11.05,-106.30 -12.16,-106.39 -13.24,-106.47 -14.37,-106.55 -15.50,-106.64 -16.58,-106.72 -17.70,-106.80 -18.81,-106.88 -19.88,-106.96 -20.96,-107.03 -22.10,-107.10 -23.15,-107.18 -24.21,-107.23 -25.31,-107.30 -26.40,-107.36 -27.49,-107.43 -28.50,-107.49 -29.58,-107.54 -30.66,-107.60 -31.73,-107.65 -32.81,-107.71 -33.81,-107.76 -34.88,-107.80 -35.94,-107.85 -37.01,-107.89 -38.07,-107.94 -39.09,-107.98 -40.11,-108.01 -41.17,-108.04 -42.22,-108.08 -43.28,-108.11 -44.33,-108.15 -45.29,-108.18 -46.34,-108.20 -47.43,-108.23 -48.43,-108.26 -49.43,-108.28 -50.47,-108.30 -51.51,-108.32 -52.55,-108.34 -53.38,-108.36"/>
        <lane id="-E1_1" index="1" speed="13.89" length="543.76" shape="477.58,0.43 473.82,-0.59 470.09,-1.60 466.38,-2.59 462.68,-3.58 459.00,-4.57 455.34,-5.55 451.69,-6.53 448.08,-7.50 444.47,-8.47 440.89,-9.43 437.32,-10.38 433.78,-11.33 430.25,-12.27 426.74,-13.21 423.25,-14.14 419.78,-15.06 416.31,-15.98 412.88,-16.90 409.47,-17.81 406.07,-18.71 402.68,-19.61 399.32,-20.50 395.97,-21.39 392.65,-22.27 389.34,-23.14 386.04,-24.01 382.76,-24.88 379.51,-25.74 376.27,-26.59 373.05,-27.44 369.84,-28.28 366.65,-29.12 363.48,-29.95 360.33,-30.78 357.20,-31.59 354.08,-32.41 350.96,-33.23 347.89,-34.02 344.81,-34.83 341.76,-35.63 338.73,-36.41 335.71,-37.19 332.71,-37.97 329.72,-38.74 326.74,-39.51 323.80,-40.28 320.86,-41.03 317.94,-41.79 315.04,-42.54 312.15,-43.28 309.27,-44.02 306.42,-44.75 303.57,-45.48 300.75,-46.20 297.93,-46.92 295.14,-47.63 292.37,-48.34 289.60,-49.04 286.86,-49.74 284.12,-50.43 281.40,-51.12 278.71,-51.81 276.02,-52.48 273.34,-53.16 270.69,-53.82 268.05,-54.48 265.43,-55.14 262.81,-55.79 260.21,-56.44 257.63,-57.09 255.06,-57.73 252.52,-58.36 249.97,-58.99 247.44,-59.62 244.94,-60.24 242.44,-60.86 239.97,-61.47 237.50,-62.07 235.04,-62.68 232.60,-63.27 230.16,-63.87 227.77,-64.46 225.37,-65.03 222.98,-65.61 220.62,-66.18 218.25,-66.75 215.90,-67.32 213.58,-67.88 211.26,-68.44 208.96,-68.99 206.67,-69.54 204.39,-70.08 202.12,-70.62 199.87,-71.16 197.64,-71.69 195.42,-72.21 193.20,-72.74 191.00,-73.25 188.82,-73.77 186.64,-74.26 184.47,-74.78 182.33,-75.28 180.20,-75.77 178.08,-76.26 175.96,-76.74 173.85,-77.23 171.77,-77.71 169.70,-78.18 167.63,-78.65 165.58,-79.12 163.54,-79.58 161.51,-80.04 159.49,-80.50 157.50,-80.94 155.51,-81.38 153.52,-81.82 151.54,-82.27 149.59,-82.70 147.66,-83.13 145.71,-83.55 143.79,-83.98 141.87,-84.39 139.97,-84.81 138.07,-85.22 136.20,-85.63 134.33,-86.03 132.47,-86.43 130.63,-86.81 128.78,-87.20 126.96,-87.59 125.14,-87.97 123.32,-88.35 121.53,-88.73 119.75,-89.10 117.97,-89.47 116.21,-89.84 114.46,-90.20 112.71,-90.56 110.98,-90.90 109.25,-91.26 107.53,-91.60 105.83,-91.94 104.14,-92.28 102.44,-92.61 100.77,-92.95 99.11,-93.27 97.44,-93.60 95.79,-93.92 94.16,-94.24 92.53,-94.54 90.91,-94.86 89.29,-95.17 87.68,-95.47 86.11,-95.77 84.51,-96.06 82.93,-96.36 81.37,-96.65 79.81,-96.94 78.27,-97.22 76.71,-97.50 75.18,-97.78 73.66,-98.04 72.14,-98.31 70.64,-98.58 69.14,-98.84 67.64,-99.10 66.14,-99.36 64.67,-99.62 63.22,-99.87 61.76,-100.12 60.31,-100.35 58.85,-100.59 57.41,-100.84 55.98,-101.07 54.57,-101.30 53.17,-101.53 51.74,-101.75 50.34,-101.98 48.95,-102.20 47.57,-102.42 46.20,-102.62 44.82,-102.84 43.46,-103.04 42.09,-103.24 40.73,-103.45 39.41,-103.65 38.06,-103.84 36.72,-104.04 35.40,-104.23 34.09,-104.42 32.79,-104.59 31.48,-104.77 30.16,-104.96 28.88,-105.13 27.58,-105.30 26.31,-105.48 25.05,-105.64 23.76,-105.81 22.51,-105.97 21.25,-106.13 19.98,-106.29 18.75,-106.45 17.52,-106.59 16.26,-106.74 15.05,-106.89 13.84,-107.03 12.60,-107.17 11.38,-107.31 10.18,-107.45 8.99,-107.58 7.79,-107.71 6.57,-107.84 5.38,-107.97 4.21,-108.10 3.04,-108.21 1.87,-108.33 0.69,-108.44 -0.48,-108.56 -1.63,-108.67 -2.80,-108.78 -3.94,-108.89 -5.09,-108.99 -6.26,-109.10 -7.38,-109.20 -8.51,-109.30 -9.65,-109.39 -10.78,-109.49 -11.90,-109.58 -13.00,-109.66 -14.13,-109.74 -15.25,-109.83 -16.35,-109.91 -17.47,-109.99 -18.58,-110.07 -19.66,-110.15 -20.75,-110.22 -21.88,-110.29 -22.95,-110.37 -24.02,-110.43 -25.12,-110.50 -26.21,-110.56 -27.30,-110.63 -28.33,-110.69 -29.41,-110.74 -30.50,-110.80 -31.57,-110.85 -32.65,-110.91 -33.67,-110.95 -34.74,-110.99 -35.80,-111.04 -36.87,-111.08 -37.93,-111.13 -38.97,-111.17 -40.00,-111.21 -41.06,-111.24 -42.11,-111.28 -43.17,-111.31 -44.22,-111.35 -45.21,-111.38 -46.26,-111.40 -47.34,-111.43 -48.36,-111.46 -49.37,-111.48 -50.41,-111.50 -51.45,-111.52 -52.49,-111.54 -53.38,-111.56"/>