<?xml version="1.0" encoding="UTF-8"?>

<!-- generated on 2026-05-23 18:26:33 by Eclipse SUMO jtrrouter Version 1.13.0
<configuration xmlns:xsi="http://www.w3.org/2001/XMLSchema-instance" xsi:noNamespaceSchemaLocation="http://sumo.dlr.de/xsd/jtrrouterConfiguration.xsd">

    <input>
        <net-file value="3.net.xml"/>
        <route-files value="3.flow.xml"/>
        <turn-ratio-files value="3.turn.xml"/>
    </input>

    <output>
        <output-file value="3.rou.xml"/>
    </output>

    <processing>
        <no-internal-links value="true"/>
        <accept-all-destinations value="true"/>
    </processing>

    <time>
        <begin value="0"/>
        <end value="3600"/>
    </time>

</configuration>
-->

<routes xmlns:xsi="http://www.w3.org/2001/XMLSchema-instance" xsi:noNamespaceSchemaLocation="http://sumo.dlr.de/xsd/routes_file.xsd">
    <vType id="car" maxSpeed="37.00" vClass="passenger"/>
    <vehicle id="E_car.0" type="car" depart="0.00">
        <route edges="-E1 E2"/>
    </vehicle>
    <vehicle id="N_car.0" type="car" depart="0.00">
        <route edges="-E2 E1"/>
    </vehicle>
    <vehicle id="W_car.0" type="car" depart="0.00">
        <route edges="E0 E1"/>
    </vehicle>
    <vehicle id="W_car.1" type="car" depart="6.33">
        <route edges="E0 E1"/>
    </vehicle>
    <vehicle id="E_car.1" type="car" depart="7.52">
        <route edges="-E1 -E0"/>
    </vehicle>
    <vehicle id="N_car.1" type="car" depart="11.01">
        <route edges="-E2 -E0"/>
    </vehicle>
    <vehicle id="W_car.2" type="car" depart="12.65">
        <route edges="E0 E2"/>
    </vehicle>
    <vehicle id="E_car.2" type="car" depart="15.03">
        <route edges="-E1 -E0"/>
    </vehicle>
    <vehicle id="W_car.3" type="car" depart="18.98">
        <route edges="E0 E1"/>
    </vehicle>
    <vehicle id="N_car.2" type="car" depart="22.02">
        <route edges="-E2 E1"/>
    </vehicle>
    <vehicle id="E_car.3" type="car" depart="22.55">
        <route edges="-E1 -E0"/>
    </vehicle>
    <vehicle id="W_car.4" type="car" depart="25.30">
        <route edges="E0 E1"/>
    </vehicle>
    <vehicle id="E_car.4" type="car" depart="30.06">
        <route edges="-E1 -E0"/>
    </vehicle>
    <vehicle id="W_car.5" type="car" depart="31.63">
        <route edges="E0 E1"/>
    </vehicle>
    <vehicle id="N_car.3" type="car" depart="33.03">
        <route edges="-E2 E1"/>
    </vehicle>
    <vehicle id="E_car.5" type="car" depart="37.58">
        <route edges="-E1 -E0"/>
    </vehicle>
    <vehicle id="W_car.6" type="car" depart="37.96">
        <route edges="E0 E1"/>
    </vehicle>
    <vehicle id="N_car.4" type="car" depart="44.04">
        <route edges="-E2 E1"/>
    </vehicle>
    <vehicle id="W_car.7" type="car" depart="44.28">
        <route edges="E0 E1"/>
    </vehicle>
    <vehicle id="E_car.6" type="car" depart="45.09">
        <route edges="-E1 E2"/>
    </vehicle>
    <vehicle id="W_car.8" type="car" depart="50.61">
        <route edges="E0 E1"/>
    </vehicle>
    <vehicle id="E_car.7" type="car" depart="52.61">
        <route edges="-E1 -E0"/>
    </vehicle>
    <vehicle id="N_car.5" type="car" depart="55.05">
        <route edges="-E2 -E0"/>
    </vehicle>
    <vehicle id="W_car.9" type="car" depart="56.93">
        <route edges="E0 E1"/>
    </vehicle>
    <vehicle id="E_car.8" type="car" depart="60.12">
        <route edges="-E1 E2"/>
    </vehicle>
    <vehicle id="W_car.10" type="car" depart="63.26">
        <route edges="E0 E2"/>
    </vehicle>
    <vehicle id="N_car.6" type="car" depart="66.05">
        <route edges="-E2 E1"/>
    </vehicle>
    <vehicle id="E_car.9" type="car" depart="67.64">
        <route edges="-E1 -E0"/>
    </vehicle>
    <vehicle id="W_car.11" type="car" depart="69.59">
        <route edges="E0 E1"/>
    </vehicle>
    <vehicle id="E_car.10" type="car" depart="75.15">
        <route edges="-E1 -E0"/>
    </vehicle>
    <vehicle id="W_car.12" type="car" depart="75.91">
        <route edges="E0 E1"/>
    </vehicle>
    <vehicle id="N_car.7" type="car" depart="77.06">
        <route edges="-E2 -E0"/>
    </vehicle>
    <vehicle id="W_car.13" type="car" depart="82.24">
        <route edges="E0 E2"/>
    </vehicle>
    <vehicle id="E_car.11" type="car" depart="82.67">
        <route edges="-E1 -E0"/>
    </vehicle>
    <vehicle id="N_car.8" type="car" depart="88.07">
        <route edges="-E2 E1"/>
    </vehicle>
    <vehicle id="W_car.14" type="car" depart="88.56">
        <route edges="E0 E1"/>
    </vehicle>
    <vehicle id="E_car.12" type="car" depart="90.18">
        <route edges="-E1 E2"/>
    </vehicle>
    <vehicle id="W_car.15" type="car" depart="94.89">
        <route edges="E0 E1"/>
    </vehicle>
    <vehicle id="E_car.13" type="car" depart="97.70">
        <route edges="-E1 -E0"/>
    </vehicle>
    <vehicle id="N_car.9" type="car" depart="99.08">
        <route edges="-E2 -E0"/>
    </vehicle>
    <vehicle id="W_car.16" type="car" depart="101.22">
        <route edges="E0 E1"/>
    </vehicle>
    <vehicle id="E_car.14" type="car" depart="105.21">
        <route edges="-E1 E2"/>
    </vehicle>
    <vehicle id="W_car.17" type="car" depart="107.54">
        <route edges="E0 E1"/>
    </vehicle>
    <vehicle id="N_car.10" type="car" depart="110.09">
        <route edges="-E2 -E0"/>
    </vehicle>
    <vehicle id="E_car.15" type="car" depart="112.73">
        <route edges="-E1 -E0"/>
    </vehicle>
    <vehicle id="W_car.18" type="car" depart="113.87">
        <route edges="E0 E1"/>
    </vehicle>
    <vehicle id="W_car.19" type="car" depart="120.19">
        <route edges="E0 E1"/>
    </vehicle>
    <vehicle id="E_car.16" type="car" depart="120.24">
        <route edges="-E1 E2"/>
    </vehicle>
    <vehicle id="N_car.11" type="car" depart="121.10">
        <route edges="-E2 -E0"/>
    </vehicle>
    <vehicle id="W_car.20" type="car" depart="126.52">
        <route edges="E0 E1"/>
    </vehicle>
    <vehicle id="E_car.17" type="car" depart="127.76">
        <route edges="-E1 E2"/>
    </vehicle>
    <vehicle id="N_car.12" type="car" depart="132.11">
        <route edges="-E2 E1"/>
    </vehicle>
    <vehicle id="W_car.21" type="car" depart="132.85">
        <route edges="E0 E2"/>
    </vehicle>
    <vehicle id="E_car.18" type="car" depart="135.27">
        <route edges="-E1 E2"/>
    </vehicle>
    <vehicle id="W_car.22" type="car" depart="139.17">
        <route edges="E0 E2"/>
    </vehicle>
    <vehicle id="E_car.19" type="car" depart="142.79">
        <route edges="-E1 -E0"/>
    </vehicle>
    <vehicle id="N_car.13" type="car" depart="143.12">
        <route edges="-E2 E1"/>
    </vehicle>
    <vehicle id="W_car.23" type="car" depart="145.50">
        <route edges="E0 E1"/>
    </vehicle>
    <vehicle id="E_car.20" type="car" depart="150.30">
        <route edges="-E1 -E0"/>
    </vehicle>
    <vehicle id="W_car.24" type="car" depart="151.82">
        <route edges="E0 E2"/>
    </vehicle>
    <vehicle id="N_car.14" type="car" depart="154.13">
        <route edges="-E2 -E0"/>
    </vehicle>
    <vehicle id="E_car.21" type="car" depart="157.82">
        <route edges="-E1 E2"/>
    </vehicle>
    <vehicle id="W_car.25" type="car" depart="158.15">
        <route edges="E0 E1"/>
    </vehicle>
    <vehicle id="W_car.26" type="car" depart="164.48">
        <route edges="E0 E1"/>
    </vehicle>
    <vehicle id="N_car.15" type="car" depart="165.14">
        <route edges="-E2 -E0"/>
    </vehicle>
    <vehicle id="E_car.22" type="car" depart="165.33">
        <route edges="-E1 -E0"/>
    </vehicle>
    <vehicle id="W_car.27" type="car" depart="170.80">
        <route edges="E0 E2"/>
    </vehicle>
    <vehicle id="E_car.23" type="car" depart="172.85">
        <route edges="-E1 -E0"/>
    </vehicle>
    <vehicle id="N_car.16" type="car" depart="176.14">
        <route edges="-E2 -E0"/>
    </vehicle>
    <vehicle id="W_car.28" type="car" depart="177.13">
        <route edges="E0 E2"/>
    </vehicle>
    <vehicle id="E_car.24" type="car" depart="180.36">
        <route edges="-E1 -E0"/>
    </vehicle>
    <vehicle id="W_car.29" type="car" depart="183.45">
        <route edges="E0 E1"/>
    </vehicle>
    <vehicle id="N_car.17" type="car" depart="187.15">
        <route edges="-E2 -E0"/>
    </vehicle>
    <vehicle id="E_car.25" type="car" depart="187.88">
        <route edges="-E1 -E0"/>
    </vehicle>
    <vehicle id="W_car.30" type="car" depart="189.78">
        <route edges="E0 E1"/>
    </vehicle>
    <vehicle id="E_car.26" type="car" depart="195.39">
        <route edges="-E1 -E0"/>
    </vehicle>
    <vehicle id="W_car.31" type="car" depart="196.11">
        <route edges="E0 E1"/>
    </vehicle>
    <vehicle id="N_car.18" type="car" depart="198.16">
        <route edges="-E2 -E0"/>
    </vehicle>
    <vehicle id="W_car.32" type="car" depart="202.43">
        <route edges="E0 E2"/>
    </vehicle>
    <vehicle id="E_car.27" type="car" depart="202.91">
        <route edges="-E1 -E0"/>
    </vehicle>
    <vehicle id="W_car.33" type="car" depart="208.76">
        <route edges="E0 E1"/>
    </vehicle>
    <vehicle id="N_car.19" type="car" depart="209.17">
        <route edges="-E2 -E0"/>
    </vehicle>
    <vehicle id="E_car.28" type="car" depart="210.42">
        <route edges="-E1 E2"/>
    </vehicle>
    <vehicle id="W_car.34" type="car" depart="215.08">
        <route edges="E0 E1"/>
    </vehicle>
    <vehicle id="E_car.29" type="car" depart="217.94">
        <route edges="-E1 -E0"/>
    </vehicle>
    <vehicle id="N_car.20" type="car" depart="220.18">
        <route edges="-E2 -E0"/>
    </vehicle>
    <vehicle id="W_car.35" type="car" depart="221.41">
        <route edges="E0 E1"/>
    </vehicle>
    <vehicle id="E_car.30" type="car" depart="225.45">
        <route edges="-E1 E2"/>
    </vehicle>
    <vehicle id="W_car.36" type="car" depart="227.74">
        <route edges="E0 E1"/>
    </vehicle>
    <vehicle id="N_car.21" type="car" depart="231.19">
        <route edges="-E2 -E0"/>
    </vehicle>
    <vehicle id="E_car.31" type="car" depart="232.97">
        <route edges="-E1 -E0"/>
    </vehicle>
    <vehicle id="W_car.37" type="car" depart="234.06">
        <route edges="E0 E2"/>
    </vehicle>
    <vehicle id="W_car.38" type="car" depart="240.39">
        <route edges="E0 E1"/>
    </vehicle>
    <vehicle id="E_car.32" type="car" depart="240.48">
        <route edges="-E1 -E0"/>
    </vehicle>
    <vehicle id="N_car.22" type="car" depart="242.20">
        <route edges="-E2 -E0"/>
    </vehicle>
    <vehicle id="W_car.39" type="car" depart="246.71">
        <route edges="E0 E2"/>
    </vehicle>
    <vehicle id="E_car.33" type="car" depart="248.00">
        <route edges="-E1 -E0"/>
    </vehicle>
    <vehicle id="W_car.40" type="car" depart="253.04">
        <route edges="E0 E2"/>
    </vehicle>
    <vehicle id="N_car.23" type="car" depart="253.21">
        <route edges="-E2 E1"/>
    </vehicle>
    <vehicle id="E_car.34" type="car" depart="255.51">
        <route edges="-E1 -E0"/>
    </vehicle>
    <vehicle id="W_car.41" type="car" depart="259.37">
        <route edges="E0 E2"/>
    </vehicle>
    <vehicle id="E_car.35" type="car" depart="263.03">
        <route edges="-E1 -E0"/>
    </vehicle>
    <vehicle id="N_car.24" type="car" depart="264.22">
        <route edges="-E2 E1"/>
    </vehicle>
    <vehicle id="W_car.42" type="car" depart="265.69">
        <route edges="E0 E1"/>
    </vehicle>
    <vehicle id="E_car.36" type="car" depart="270.54">
        <route edges="-E1 E2"/>
    </vehicle>
    <vehicle id="W_car.43" type="car" depart="272.02">
        <route edges="E0 E1"/>
    </vehicle>
    <vehicle id="N_car.25" type="car" depart="275.23">
        <route edges="-E2 -E0"/>
    </vehicle>
    <vehicle id="E_car.37" type="car" depart="278.06">
        <route edges="-E1 -E0"/>
    </vehicle>
    <vehicle id="W_car.44" type="car" depart="278.34">
        <route edges="E0 E2"/>
    </vehicle>
    <vehicle id="W_car.45" type="car" depart="284.67">
        <route edges="E0 E1"/>
    </vehicle>
    <vehicle id="E_car.38" type="car" depart="285.57">
        <route edges="-E1 -E0"/>
    </vehicle>
    <vehicle id="N_car.26" type="car" depart="286.23">
        <route edges="-E2 E1"/>
    </vehicle>
    <vehicle id="W_car.46" type="car" depart="291.00">
        <route edges="E0 E2"/>
    </vehicle>
    <vehicle id="E_car.39" type="car" depart="293.09">
        <route edges="-E1 -E0"/>
    </vehicle>
    <vehicle id="N_car.27" type="car" depart="297.24">
        <route edges="-E2 E1"/>
    </vehicle>
    <vehicle id="W_car.47" type="car" depart="297.32">
        <route edges="E0 E1"/>
    </vehicle>
    <vehicle id="E_car.40" type="car" depart="300.60">
        <route edges="-E1 E2"/>
    </vehicle>
    <vehicle id="W_car.48" type="car" depart="303.65">
        <route edges="E0 E1"/>
    </vehicle>
    <vehicle id="E_car.41" type="car" depart="308.12">
        <route edges="-E1 E2"/>
    </vehicle>
    <vehicle id="N_car.28" type="car" depart="308.25">
        <route edges="-E2 -E0"/>
    </vehicle>
    <vehicle id="W_car.49" type="car" depart="309.97">
        <route edges="E0 E1"/>
    </vehicle>
    <vehicle id="E_car.42" type="car" depart="315.63">
        <route edges="-E1 -E0"/>
    </vehicle>
    <vehicle id="W_car.50" type="car" depart="316.30">
        <route edges="E0 E1"/>
    </vehicle>
    <vehicle id="N_car.29" type="car" depart="319.26">
        <route edges="-E2 E1"/>
    </vehicle>
    <vehicle id="W_car.51" type="car" depart="322.63">
        <route edges="E0 E2"/>
    </vehicle>
    <vehicle id="E_car.43" type="car" depart="323.15">
        <route edges="-E1 E2"/>
    </vehicle>
    <vehicle id="W_car.52" type="car" depart="328.95">
        <route edges="E0 E1"/>
    </vehicle>
    <vehicle id="N_car.30" type="car" depart="330.27">
        <route edges="-E2 E1"/>
    </vehicle>
    <vehicle id="E_car.44" type="car" depart="330.66">
        <route edges="-E1 -E0"/>
    </vehicle>
    <vehicle id="W_car.53" type="car" depart="335.28">
        <route edges="E0 E1"/>
    </vehicle>
    <vehicle id="E_car.45" type="car" depart="338.18">
        <route edges="-E1 -E0"/>
    </vehicle>
    <vehicle id="N_car.31" type="car" depart="341.28">
        <route edges="-E2 E1"/>
    </vehicle>
    <vehicle id="W_car.54" type="car" depart="341.60">
        <route edges="E0 E1"/>
    </vehicle>
    <vehicle id="E_car.46" type="car" depart="345.69">
        <route edges="-E1 -E0"/>
    </vehicle>
    <vehicle id="W_car.55" type="car" depart="347.93">
        <route edges="E0 E1"/>
    </vehicle>
    <vehicle id="N_car.32" type="car" depart="352.29">
        <route edges="-E2 E1"/>
    </vehicle>
    <vehicle id="E_car.47" type="car" depart="353.21">
        <route edges="-E1 -E0"/>
    </vehicle>
    <vehicle id="W_car.56" type="car" depart="354.26">
        <route edges="E0 E1"/>
    </vehicle>
    <vehicle id="W_car.57" type="car" depart="360.58">
        <route edges="E0 E2"/>
    </vehicle>
    <vehicle id="E_car.48" type="car" depart="360.72">
        <route edges="-E1 E2"/>
    </vehicle>
    <vehicle id="N_car.33" type="car" depart="363.30">
        <route edges="-E2 E1"/>
    </vehicle>
    <vehicle id="W_car.58" type="car" depart="366.91">
        <route edges="E0 E2"/>
    </vehicle>
    <vehicle id="E_car.49" type="car" depart="368.24">
        <route edges="-E1 -E0"/>
    </vehicle>
    <vehicle id="W_car.59" type="car" depart="373.23">
        <route edges="E0 E1"/>
    </vehicle>
    <vehicle id="N_car.34" type="car" depart="374.31">
        <route edges="-E2 E1"/>
    </vehicle>
    <vehicle id="E_car.50" type="car" depart="375.75">
        <route edges="-E1 E2"/>
    </vehicle>
    <vehicle id="W_car.60" type="car" depart="379.56">
        <route edges="E0 E1"/>
    </vehicle>
    <vehicle id="E_car.51" type="car" depart="383.27">
        <route edges="-E1 E2"/>
    </vehicle>
    <vehicle id="N_car.35" type="car" depart="385.32">
        <route edges="-E2 -E0"/>
    </vehicle>
    <vehicle id="W_car.61" type="car" depart="385.89">
        <route edges="E0 E1"/>
    </vehicle>
    <vehicle id="E_car.52" type="car" depart="390.78">
        <route edges="-E1 E2"/>
    </vehicle>
    <vehicle id="W_car.62" type="car" depart="392.21">
        <route edges="E0 E1"/>
    </vehicle>
    <vehicle id="N_car.36" type="car" depart="396.32">
        <route edges="-E2 -E0"/>
    </vehicle>
    <vehicle id="E_car.53" type="car" depart="398.30">
        <route edges="-E1 -E0"/>
    </vehicle>
    <vehicle id="W_car.63" type="car" depart="398.54">
        <route edges="E0 E1"/>
    </vehicle>
    <vehicle id="W_car.64" type="car" depart="404.86">
        <route edges="E0 E2"/>
    </vehicle>
    <vehicle id="E_car.54" type="car" depart="405.81">
        <route edges="-E1 -E0"/>
    </vehicle>
    <vehicle id="N_car.37" type="car" depart="407.33">
        <route edges="-E2 E1"/>
    </vehicle>
    <vehicle id="W_car.65" type="car" depart="411.19">
        <route edges="E0 E2"/>
    </vehicle>
    <vehicle id="E_car.55" type="car" depart="413.33">
        <route edges="-E1 -E0"/>
    </vehicle>
    <vehicle id="W_car.66" type="car" depart="417.52">
        <route edges="E0 E1"/>
    </vehicle>
    <vehicle id="N_car.38" type="car" depart="418.34">
        <route edges="-E2 E1"/>
    </vehicle>
    <vehicle id="E_car.56" type="car" depart="420.84">
        <route edges="-E1 E2"/>
    </vehicle>
    <vehicle id="W_car.67" type="car" depart="423.84">
        <route edges="E0 E1"/>
    </vehicle>
    <vehicle id="E_car.57" type="car" depart="428.36">
        <route edges="-E1 E2"/>
    </vehicle>
    <vehicle id="N_car.39" type="car" depart="429.35">
        <route edges="-E2 E1"/>
    </vehicle>
    <vehicle id="W_car.68" type="car" depart="430.17">
        <route edges="E0 E2"/>
    </vehicle>
    <vehicle id="E_car.58" type="car" depart="435.87">
        <route edges="-E1 E2"/>
    </vehicle>
    <vehicle id="W_car.69" type="car" depart="436.49">
        <route edges="E0 E1"/>
    </vehicle>
    <vehicle id="N_car.40" type="car" depart="440.36">
        <route edges="-E2 E1"/>
    </vehicle>
    <vehicle id="W_car.70" type="car" depart="442.82">
        <route edges="E0 E1"/>
    </vehicle>
    <vehicle id="E_car.59" type="car" depart="443.39">
        <route edges="-E1 -E0"/>
    </vehicle>
    <vehicle id="W_car.71" type="car" depart="449.15">
        <route edges="E0 E1"/>
    </vehicle>
    <vehicle id="E_car.60" type="car" depart="450.90">
        <route edges="-E1 -E0"/>
    </vehicle>
    <vehicle id="N_car.41" type="car" depart="451.37">
        <route edges="-E2 -E0"/>
    </vehicle>
    <vehicle id="W_car.72" type="car" depart="455.47">
        <route edges="E0 E2"/>
    </vehicle>
    <vehicle id="E_car.61" type="car" depart="458.42">
        <route edges="-E1 -E0"/>
    </vehicle>
    <vehicle id="W_car.73" type="car" depart="461.80">
        <route edges="E0 E1"/>
    </vehicle>
    <vehicle id="N_car.42" type="car" depart="462.38">
        <route edges="-E2 E1"/>
    </vehicle>
    <vehicle id="E_car.62" type="car" depart="465.93">
        <route edges="-E1 -E0"/>
    </vehicle>
    <vehicle id="W_car.74" type="car" depart="468.12">
        <route edges="E0 E1"/>
    </vehicle>
    <vehicle id="N_car.43" type="car" depart="473.39">
        <route edges="-E2 -E0"/>
    </vehicle>
    <vehicle id="E_car.63" type="car" depart="473.45">
        <route edges="-E1 E2"/>
    </vehicle>
    <vehicle id="W_car.75" type="car" depart="474.45">
        <route edges="E0 E1"/>
    </vehicle>
    <vehicle id="W_car.76" type="car" depart="480.78">
        <route edges="E0 E1"/>
    </vehicle>
    <vehicle id="E_car.64" type="car" depart="480.96">
        <route edges="-E1 -E0"/>
    </vehicle>
    <vehicle id="N_car.44" type="car" depart="484.40">
        <route edges="-E2 -E0"/>
    </vehicle>
    <vehicle id="W_car.77" type="car" depart="487.10">
        <route edges="E0 E1"/>
    </vehicle>
    <vehicle id="E_car.65" type="car" depart="488.48">
        <route edges="-E1 E2"/>
    </vehicle>
    <vehicle id="W_car.78" type="car" depart="493.43">
        <route edges="E0 E1"/>
    </vehicle>
    <vehicle id="N_car.45" type="car" depart="495.41">
        <route edges="-E2 -E0"/>
    </vehicle>
    <vehicle id="E_car.66" type="car" depart="495.99">
        <route edges="-E1 E2"/>
    </vehicle>
    <vehicle id="W_car.79" type="car" depart="499.75">
        <route edges="E0 E1"/>
    </vehicle>
    <vehicle id="E_car.67" type="car" depart="503.51">
        <route edges="-E1 -E0"/>
    </vehicle>
    <vehicle id="W_car.80" type="car" depart="506.08">
        <route edges="E0 E1"/>
    </vehicle>
    <vehicle id="N_car.46" type="car" depart="506.41">
        <route edges="-E2 E1"/>
    </vehicle>
    <vehicle id="E_car.68" type="car" depart="511.02">
        <route edges="-E1 -E0"/>
    </vehicle>
    <vehicle id="W_car.81" type="car" depart="512.41">
        <route edges="E0 E2"/>
    </vehicle>
    <vehicle id="N_car.47" type="car" depart="517.42">
        <route edges="-E2 E1"/>
    </vehicle>
    <vehicle id="E_car.69" type="car" depart="518.54">
        <route edges="-E1 E2"/>
    </vehicle>
    <vehicle id="W_car.82" type="car" depart="518.73">
        <route edges="E0 E1"/>
    </vehicle>
    <vehicle id="W_car.83" type="car" depart="525.06">
        <route edges="E0 E1"/>
    </vehicle>
    <vehicle id="E_car.70" type="car" depart="526.05">
        <route edges="-E1 -E0"/>
    </vehicle>
    <vehicle id="N_car.48" type="car" depart="528.43">
        <route edges="-E2 -E0"/>
    </vehicle>
    <vehicle id="W_car.84" type="car" depart="531.38">
        <route edges="E0 E2"/>
    </vehicle>
    <vehicle id="E_car.71" type="car" depart="533.57">
        <route edges="-E1 E2"/>
    </vehicle>
    <vehicle id="W_car.85" type="car" depart="537.71">
        <route edges="E0 E1"/>
    </vehicle>
    <vehicle id="N_car.49" type="car" depart="539.44">
        <route edges="-E2 -E0"/>
    </vehicle>
    <vehicle id="E_car.72" type="car" depart="541.08">
        <route edges="-E1 -E0"/>
    </vehicle>
    <vehicle id="W_car.86" type="car" depart="544.04">
        <route edges="E0 E1"/>
    </vehicle>
    <vehicle id="E_car.73" type="car" depart="548.60">
        <route edges="-E1 -E0"/>
    </vehicle>
    <vehicle id="W_car.87" type="car" depart="550.36">
        <route edges="E0 E1"/>
    </vehicle>
    <vehicle id="N_car.50" type="car" depart="550.45">
        <route edges="-E2 E1"/>
    </vehicle>
    <vehicle id="E_car.74" type="car" depart="556.11">
        <route edges="-E1 E2"/>
    </vehicle>
    <vehicle id="W_car.88" type="car" depart="556.69">
        <route edges="E0 E2"/>
    </vehicle>
    <vehicle id="N_car.51" type="car" depart="561.46">
        <route edges="-E2 E1"/>
    </vehicle>
    <vehicle id="W_car.89" type="car" depart="563.01">
        <route edges="E0 E1"/>
    </vehicle>
    <vehicle id="E_car.75" type="car" depart="563.63">
        <route edges="-E1 E2"/>
    </vehicle>
    <vehicle id="W_car.90" type="car" depart="569.34">
        <route edges="E0 E1"/>
    </vehicle>
    <vehicle id="E_car.76" type="car" depart="571.14">
        <route edges="-E1 -E0"/>
    </vehicle>
    <vehicle id="N_car.52" type="car" depart="572.47">
        <route edges="-E2 E1"/>
    </vehicle>
    <vehicle id="W_car.91" type="car" depart="575.67">
        <route edges="E0 E1"/>
    </vehicle>
    <vehicle id="E_car.77" type="car" depart="578.66">
        <route edges="-E1 -E0"/>
    </vehicle>
    <vehicle id="W_car.92" type="car" depart="581.99">
        <route edges="E0 E1"/>
    </vehicle>
    <vehicle id="N_car.53" type="car" depart="583.48">
        <route edges="-E2 E1"/>
    </vehicle>
    <vehicle id="E_car.78" type="car" depart="586.17">
        <route edges="-E1 E2"/>
    </vehicle>
    <vehicle id="W_car.93" type="car" depart="588.32">
        <route edges="E0 E2"/>
    </vehicle>
    <vehicle id="E_car.79" type="car" depart="593.69">
        <route edges="-E1 -E0"/>
    </vehicle>
    <vehicle id="N_car.54" type="car" depart="594.49">
        <route edges="-E2 E1"/>
    </vehicle>
    <vehicle id="W_car.94" type="car" depart="594.64">
        <route edges="E0 E1"/>
    </vehicle>
    <vehicle id="W_car.95" type="car" depart="600.97">
        <route edges="E0 E1"/>
    </vehicle>
    <vehicle id="E_car.80" type="car" depart="601.20">
        <route edges="-E1 -E0"/>
    </vehicle>
    <vehicle id="N_car.55" type="car" depart="605.50">
        <route edges="-E2 -E0"/>
    </vehicle>
    <vehicle id="W_car.96" type="car" depart="607.30">
        <route edges="E0 E1"/>
    </vehicle>
    <vehicle id="E_car.81" type="car" depart="608.72">
        <route edges="-E1 -E0"/>
    </vehicle>
    <vehicle id="W_car.97" type="car" depart="613.62">
        <route edges="E0 E2"/>
    </vehicle>
    <vehicle id="E_car.82" type="car" depart="616.23">
        <route edges="-E1 E2"/>
    </vehicle>
    <vehicle id="N_car.56" type="car" depart="616.50">
        <route edges="-E2 -E0"/>
    </vehicle>
    <vehicle id="W_car.98" type="car" depart="619.95">
        <route edges="E0 E2"/>
    </vehicle>
    <vehicle id="E_car.83" type="car" depart="623.75">
        <route edges="-E1 -E0"/>
    </vehicle>
    <vehicle id="W_car.99" type="car" depart="626.27">
        <route edges="E0 E1"/>
    </vehicle>
    <vehicle id="N_car.57" type="car" depart="627.51">
        <route edges="-E2 -E0"/>
    </vehicle>
    <vehicle id="E_car.84" type="car" depart="631.26">
        <route edges="-E1 -E0"/>
    </vehicle>
    <vehicle id="W_car.100" type="car" depart="632.60">
        <route edges="E0 E1"/>
    </vehicle>
    <vehicle id="N_car.58" type="car" depart="638.52">
        <route edges="-E2 -E0"/>
    </vehicle>
    <vehicle id="E_car.85" type="car" depart="638.78">
        <route edges="-E1 -E0"/>
    </vehicle>
    <vehicle id="W_car.101" type="car" depart="638.93">
        <route edges="E0 E2"/>
    </vehicle>
    <vehicle id="W_car.102" type="car" depart="645.25">
        <route edges="E0 E1"/>
    </vehicle>
    <vehicle id="E_car.86" type="car" depart="646.29">
        <route edges="-E1 -E0"/>
    </vehicle>
    <vehicle id="N_car.59" type="car" depart="649.53">
        <route edges="-E2 -E0"/>
    </vehicle>
    <vehicle id="W_car.103" type="car" depart="651.58">
        <route edges="E0 E1"/>
    </vehicle>
    <vehicle id="E_car.87" type="car" depart="653.81">
        <route edges="-E1 E2"/>
    </vehicle>
    <vehicle id="W_car.104" type="car" depart="657.90">
        <route edges="E0 E1"/>
    </vehicle>
    <vehicle id="N_car.60" type="car" depart="660.54">
        <route edges="-E2 E1"/>
    </vehicle>
    <vehicle id="E_car.88" type="car" depart="661.32">
        <route edges="-E1 -E0"/>
    </vehicle>
    <vehicle id="W_car.105" type="car" depart="664.23">
        <route edges="E0 E1"/>
    </vehicle>
    <vehicle id="E_car.89" type="car" depart="668.84">
        <route edges="-E1 E2"/>
    </vehicle>
    <vehicle id="W_car.106" type="car" depart="670.56">
        <route edges="E0 E2"/>
    </vehicle>
    <vehicle id="N_car.61" type="car" depart="671.55">
        <route edges="-E2 E1"/>
    </vehicle>
    <vehicle id="E_car.90" type="car" depart="676.35">
        <route edges="-E1 -E0"/>
    </vehicle>
    <vehicle id="W_car.107" type="car" depart="676.88">
        <route edges="E0 E1"/>
    </vehicle>
    <vehicle id="N_car.62" type="car" depart="682.56">
        <route edges="-E2 E1"/>
    </vehicle>
    <vehicle id="W_car.108" type="car" depart="683.21">
        <route edges="E0 E1"/>
    </vehicle>
    <vehicle id="E_car.91" type="car" depart="683.87">
        <route edges="-E1 -E0"/>
    </vehicle>
    <vehicle id="W_car.109" type="car" depart="689.53">
        <route edges="E0 E1"/>
    </vehicle>
    <vehicle id="E_car.92" type="car" depart="691.38">
        <route edges="-E1 -E0"/>
    </vehicle>
    <vehicle id="N_car.63" type="car" depart="693.57">
        <route edges="-E2 E1"/>
    </vehicle>
    <vehicle id="W_car.110" type="car" depart="695.86">
        <route edges="E0 E1"/>
    </vehicle>
    <vehicle id="E_car.93" type="car" depart="698.90">
        <route edges="-E1 E2"/>
    </vehicle>
    <vehicle id="W_car.111" type="car" depart="702.19">
        <route edges="E0 E2"/>
    </vehicle>
    <vehicle id="N_car.64" type="car" depart="704.58">
        <route edges="-E2 E1"/>
    </vehicle>
    <vehicle id="E_car.94" type="car" depart="706.41">
        <route edges="-E1 -E0"/>
    </vehicle>
    <vehicle id="W_car.112" type="car" depart="708.51">
        <route edges="E0 E2"/>
    </vehicle>
    <vehicle id="E_car.95" type="car" depart="713.93">
        <route edges="-E1 E2"/>
    </vehicle>
    <vehicle id="W_car.113" type="car" depart="714.84">
        <route edges="E0 E1"/>
    </vehicle>
    <vehicle id="N_car.65" type="car" depart="715.59">
        <route edges="-E2 -E0"/>
    </vehicle>
    <vehicle id="W_car.114" type="car" depart="721.16">
        <route edges="E0 E2"/>
    </vehicle>
    <vehicle id="E_car.96" type="car" depart="721.44">
        <route edges="-E1 E2"/>
    </vehicle>
    <vehicle id="N_car.66" type="car" depart="726.59">
        <route edges="-E2 E1"/>
    </vehicle>
    <vehicle id="W_car.115" type="car" depart="727.49">
        <route edges="E0 E2"/>
    </vehicle>
    <vehicle id="E_car.97" type="car" depart="728.96">
        <route edges="-E1 -E0"/>
    </vehicle>
    <vehicle id="W_car.116" type="car" depart="733.82">
        <route edges="E0 E1"/>
    </vehicle>
    <vehicle id="E_car.98" type="car" depart="736.47">
        <route edges="-E1 -E0"/>
    </vehicle>
    <vehicle id="N_car.67" type="car" depart="737.60">
        <route edges="-E2 -E0"/>
    </vehicle>
    <vehicle id="W_car.117" type="car" depart="740.14">
        <route edges="E0 E1"/>
    </vehicle>
    <vehicle id="E_car.99" type="car" depart="743.99">
        <route edges="-E1 -E0"/>