<?xml version="1.0" encoding="UTF-8"?>

<!-- generated on 2026-05-23T13:29:12.649256+08:00 by Eclipse SUMO netedit 1.26.0
<neteditConfiguration xmlns:xsi="http://www.w3.org/2001/XMLSchema-instance" xsi:noNamespaceSchemaLocation="http://sumo.dlr.de/xsd/neteditConfiguration.xsd">

    <input>
        <sumo-net-file value="D:\sumo\sumo仿真\十字路口3\demo_8.net.xml"/>
    </input>

    <output>
        <output-file value="D:\sumo\sumo仿真\十字路口3\demo_8.net.xml"/>
    </output>

    <processing>
        <geometry.min-radius.fix.railways value="false"/>
        <geometry.avoid-overlap value="false"/>
        <geometry.max-grade.fix value="false"/>
        <offset.disable-normalization value="true"/>
        <lefthand value="0"/>
    </processing>

    <junctions>
        <no-turnarounds value="true"/>
        <junctions.corner-detail value="5"/>
        <junctions.limit-turn-speed value="5.50"/>
        <rectangular-lane-cut value="0"/>
    </junctions>

    <pedestrian>
        <walkingareas value="0"/>
    </pedestrian>

</neteditConfiguration>
-->

<net version="1.20" junctionCornerDetail="5" limitTurnSpeed="5.50" avoidOverlap="0" xmlns:xsi="http://www.w3.org/2001/XMLSchema-instance" xsi:noNamespaceSchemaLocation="http://sumo.dlr.de/xsd/net_file.xsd">

    <location netOffset="0.00,0.00" convBoundary="-71.75,-100.14,49.97,72.43" origBoundary="-10000000000.00,-10000000000.00,10000000000.00,10000000000.00" projParameter="!"/>

    <edge id=":J1_0" function="internal">
        <lane id=":J1_0_0" index="0" speed="9.29" length="15.20" shape="-3.03,17.02 -4.77,12.93 -7.11,10.02 -10.06,8.28 -13.62,7.73"/>
    </edge>
    <edge id=":J1_1" function="internal">
        <lane id=":J1_1_0" index="0" speed="13.89" length="31.74" shape="-3.03,17.02 -5.66,8.15 -7.19,1.48 -7.94,-5.31 -8.25,-14.56"/>
        <lane id=":J1_1_1" index="1" speed="13.89" length="31.74" shape="0.03,16.08 -2.58,7.35 -4.06,0.98 -4.77,-5.51 -5.05,-14.61"/>
    </edge>
    <edge id=":J1_3" function="internal">
        <lane id=":J1_3_0" index="0" speed="10.10" length="26.95" shape="3.09,15.15 1.92,7.63 3.62,2.03 8.19,-1.64 15.62,-3.40"/>
    </edge>
    <edge id=":J1_4" function="internal">
        <lane id=":J1_4_0" index="0" speed="6.12" length="9.07" shape="16.46,6.07 13.97,6.67 12.44,7.92 11.87,9.81 12.27,12.33"/>
    </edge>
    <edge id=":J1_5" function="internal">
        <lane id=":J1_5_0" index="0" speed="13.89" length="30.00" shape="16.46,6.07 -13.62,7.73"/>
        <lane id=":J1_5_1" index="1" speed="13.89" length="30.00" shape="16.18,2.88 -13.65,4.53"/>
    </edge>
    <edge id=":J1_7" function="internal">
        <lane id=":J1_7_0" index="0" speed="10.46" length="26.50" shape="15.89,-0.31 8.23,-0.58 2.72,-3.06 -0.64,-7.76 -1.86,-14.67"/>
    </edge>
    <edge id=":J1_8" function="internal">
        <lane id=":J1_8_0" index="0" speed="6.73" length="10.26" shape="7.74,-14.84 8.24,-12.38 9.62,-10.72 11.89,-9.84 15.04,-9.77"/>
    </edge>
    <edge id=":J1_9" function="internal">
        <lane id=":J1_9_0" index="0" speed="13.89" length="28.16" shape="7.74,-14.84 7.99,-6.64 8.58,-1.03 9.89,4.47 12.27,12.33"/>
        <lane id=":J1_9_1" index="1" speed="13.89" length="28.16" shape="4.54,-14.79 4.79,-6.31 5.41,-0.52 6.76,5.15 9.21,13.27"/>
    </edge>
    <edge id=":J1_11" function="internal">
        <lane id=":J1_11_0" index="0" speed="10.45" length="25.12" shape="1.34,-14.73 0.51,-7.75 -2.27,-2.75 -7.00,0.28 -13.67,1.33"/>
    </edge>
    <edge id=":J1_12" function="internal">
        <lane id=":J1_12_0" index="0" speed="6.65" length="9.54" shape="-13.76,-8.27 -11.31,-8.68 -9.57,-9.87 -8.56,-11.83 -8.25,-14.56"/>
    </edge>
    <edge id=":J1_13" function="internal">
        <lane id=":J1_13_0" index="0" speed="13.89" length="28.97" shape="-13.76,-8.27 15.04,-9.77"/>
        <lane id=":J1_13_1" index="1" speed="13.89" length="28.97" shape="-13.73,-5.07 15.33,-6.58"/>
    </edge>
    <edge id=":J1_15" function="internal">
        <lane id=":J1_15_0" index="0" speed="12.38" length="27.61" shape="-13.70,-1.87 -6.88,-0.91 -1.30,2.08 3.04,7.13 6.15,14.21"/>
    </edge>

    <edge id="-E0" from="J1" to="J0" priority="-1">
        <lane id="-E0_0" index="0" speed="13.89" length="58.06" shape="-13.62,7.73 -71.68,8.23"/>
        <lane id="-E0_1" index="1" speed="13.89" length="58.06" shape="-13.65,4.53 -71.71,5.03"/>
        <lane id="-E0_2" index="2" speed="13.89" length="58.06" shape="-13.67,1.33 -71.74,1.83"/>
    </edge>
    <edge id="-E1" from="J2" to="J1" priority="-1">
        <lane id="-E1_0" index="0" speed="13.89" length="34.41" shape="50.73,2.77 16.46,6.07"/>
        <lane id="-E1_1" index="1" speed="13.89" length="34.41" shape="50.43,-0.41 16.18,2.88"/>
        <lane id="-E1_2" index="2" speed="13.89" length="34.41" shape="50.12,-3.60 15.89,-0.31"/>
    </edge>
    <edge id="-E2" from="J3" to="J1" priority="-1">
        <lane id="-E2_0" index="0" speed="13.89" length="60.40" shape="14.66,74.77 -3.03,17.02"/>
        <lane id="-E2_1" index="1" speed="13.89" length="60.40" shape="17.72,73.84 0.03,16.08"/>
        <lane id="-E2_2" index="2" speed="13.89" length="60.40" shape="20.78,72.90 3.09,15.15"/>
    </edge>
    <edge id="-E3" from="J4" to="J1" priority="-1">
        <lane id="-E3_0" index="0" speed="13.89" length="85.45" shape="6.22,-100.28 7.74,-14.84"/>
        <lane id="-E3_1" index="1" speed="13.89" length="85.45" shape="3.02,-100.23 4.54,-14.79"/>
        <lane id="-E3_2" index="2" speed="13.89" length="85.45" shape="-0.18,-100.17 1.34,-14.73"/>
    </edge>
    <edge id="E0" from="J0" to="J1" priority="-1">
        <lane id="E0_0" index="0" speed="13.89" length="58.06" shape="-71.82,-7.77 -13.76,-8.27"/>
        <lane id="E0_1" index="1" speed="13.89" length="58.06" shape="-71.79,-4.57 -13.73,-5.07"/>
        <lane id="E0_2" index="2" speed="13.89" length="58.06" shape="-71.76,-1.37 -13.70,-1.87"/>
    </edge>
    <edge id="E1" from="J1" to="J2" priority="-1" shape="0.00,-0.39 49.01,-4.78">
        <lane id="E1_0" index="0" speed="13.89" length="34.38" shape="15.04,-9.77 49.29,-12.84"/>
        <lane id="E1_1" index="1" speed="13.89" length="34.38" shape="15.33,-6.58 49.57,-9.65"/>
        <lane id="E1_2" index="2" speed="13.89" length="34.38" shape="15.62,-3.40 49.86,-6.46"/>
    </edge>
    <edge id="E2" from="J1" to="J3" priority="-1">
        <lane id="E2_0" index="0" speed="13.89" length="60.40" shape="12.27,12.33 29.96,70.09"/>
        <lane id="E2_1" index="1" speed="13.89" length="60.40" shape="9.21,13.27 26.90,71.02"/>
        <lane id="E2_2" index="2" speed="13.89" length="60.40" shape="6.15,14.21 23.84,71.96"/>
    </edge>
    <edge id="E3" from="J1" to="J4" priority="-1">
        <lane id="E3_0" index="0" speed="13.89" length="85.45" shape="-8.25,-14.56 -9.78,-100.00"/>
        <lane id="E3_1" index="1" speed="13.89" length="85.45" shape="-5.05,-14.61 -6.58,-100.05"/>
        <lane id="E3_2" index="2" speed="13.89" length="85.45" shape="-1.86,-14.67 -3.38,-100.11"/>
    </edge>

    <tlLogic id="J1" type="static" programID="0" offset="0">
        <phase duration="58" state="rrrrGGGrrrrrGGGr"/>
        <phase duration="3"  state="rrrryyyrrrrryyyr"/>
        <phase duration="23" state="rrrrrrrGrrrrrrrG"/>
        <phase duration="3"  state="rrrrrrryrrrrrrry"/>
        <phase duration="45" state="GGGrrrrrGGGrrrrr"/>
        <phase duration="3"  state="yyyrrrrryyyrrrrr"/>
        <phase duration="28" state="rrrGrrrrrrrGrrrr"/>
        <phase duration="3"  state="rrryrrrrrrryrrrr"/>
    </tlLogic>

    <junction id="J0" type="dead_end" x="-71.75" y="0.23" incLanes="-E0_0 -E0_1 -E0_2" intLanes="" shape="-71.75,0.23 -71.67,9.83 -71.75,0.23"/>
    <junction id="J1" type="traffic_light" x="0.00" y="-0.39" incLanes="-E2_0 -E2_1 -E2_2 -E1_0 -E1_1 -E1_2 -E3_0 -E3_1 -E3_2 E0_0 E0_1 E0_2" intLanes=":J1_0_0 :J1_1_0 :J1_1_1 :J1_3_0 :J1_4_0 :J1_5_0 :J1_5_1 :J1_7_0 :J1_8_0 :J1_9_0 :J1_9_1 :J1_11_0 :J1_12_0 :J1_13_0 :J1_13_1 :J1_15_0" shape="-4.56,17.49 13.80,11.87 13.59,9.70 13.91,8.90 14.52,8.30 15.42,7.88 16.61,7.66 14.90,-11.36 11.85,-11.53 10.77,-11.99 9.99,-12.70 9.52,-13.66 9.34,-14.87 -9.85,-14.53 -10.25,-11.96 -10.79,-11.05 -11.56,-10.40 -12.55,-10.01 -13.77,-9.87 -13.61,9.33 -11.54,9.54 -9.70,10.21 -8.08,11.34 -6.69,12.93 -5.51,14.98">
        <request index="0"  response="0000000001100000" foes="0000000001100000" cont="0"/>
        <request index="1"  response="1111000001100000" foes="1111100001100000" cont="0"/>
        <request index="2"  response="1111000001100000" foes="1111100001100000" cont="0"/>
        <request index="3"  response="1000011011100000" foes="1000011011100000" cont="0"/>
        <request index="4"  response="0000000000000000" foes="0000011000000000" cont="0"/>
        <request index="5"  response="0000000000000000" foes="1000011000001111" cont="0"/>
        <request index="6"  response="0000000000000000" foes="1000011000001111" cont="0"/>
        <request index="7"  response="0110000000000000" foes="0110111000001000" cont="0"/>
        <request index="8"  response="0110000000000000" foes="0110000000000000" cont="0"/>
        <request index="9"  response="0110000011110000" foes="0110000011111000" cont="0"/>
        <request index="10" response="0110000011110000" foes="0110000011111000" cont="0"/>
        <request index="11" response="1110000010000110" foes="1110000010000110" cont="0"/>
        <request index="12" response="0000000000000000" foes="0000000000000110" cont="0"/>
        <request index="13" response="0000000000000000" foes="0000111110000110" cont="0"/>
        <request index="14" response="0000000000000000" foes="0000111110000110" cont="0"/>
        <request index="15" response="0000000001100000" foes="0000100001101110" cont="0"/>
    </junction>
    <junction id="J2" type="dead_end" x="49.97" y="-5.19" incLanes="E1_0 E1_1 E1_2" intLanes="" shape="49.97,-5.19 50.89,4.37 49.14,-14.43"/>
    <junction id="J3" type="dead_end" x="22.31" y="72.43" incLanes="E2_0 E2_1 E2_2" intLanes="" shape="22.31,72.43 31.49,69.62 22.31,72.43"/>
    <junction id="J4" type="dead_end" x="-1.78" y="-100.14" incLanes="E3_0 E3_1 E3_2" intLanes="" shape="-1.78,-100.14 -11.38,-99.97 -1.78,-100.14"/>

    <connection from="-E1" to="E2" fromLane="0" toLane="0" via=":J1_4_0" tl="J1" linkIndex="4" dir="r" state="O"/>
    <connection from="-E1" to="-E0" fromLane="0" toLane="0" via=":J1_5_0" tl="J1" linkIndex="5" dir="s" state="O"/>
    <connection from="-E1" to="-E0" fromLane="1" toLane="1" via=":J1_5_1" tl="J1" linkIndex="6" dir="s" state="O"/>
    <connection from="-E1" to="E3" fromLane="2" toLane="2" via=":J1_7_0" tl="J1" linkIndex="7" dir="l" state="o"/>
    <connection from="-E2" to="-E0" fromLane="0" toLane="0" via=":J1_0_0" tl="J1" linkIndex="0" dir="r" state="o"/>
    <connection from="-E2" to="E3" fromLane="0" toLane="0" via=":J1_1_0" tl="J1" linkIndex="1" dir="s" state="o"/>
    <connection from="-E2" to="E3" fromLane="1" toLane="1" via=":J1_1_1" tl="J1" linkIndex="2" dir="s" state="o"/>
    <connection from="-E2" to="E1" fromLane="2" toLane="2" via=":J1_3_0" tl="J1" linkIndex="3" dir="l" state="o"/>
    <connection from="-E3" to="E1" fromLane="0" toLane="0" via=":J1_8_0" tl="J1" linkIndex="8" dir="r" state="o"/>
    <connection from="-E3" to="E2" fromLane="0" toLane="0" via=":J1_9_0" tl="J1" linkIndex="9" dir="s" state="o"/>
    <connection from="-E3" to="E2" fromLane="1" toLane="1" via=":J1_9_1" tl="J1" linkIndex="10" dir="s" state="o"/>
    <connection from="-E3" to="-E0" fromLane="2" toLane="2" via=":J1_11_0" tl="J1" linkIndex="11" dir="l" state="o"/>
    <connection from="E0" to="E3" fromLane="0" toLane="0" via=":J1_12_0" tl="J1" linkIndex="12" dir="r" state="O"/>
    <connection from="E0" to="E1" fromLane="0" toLane="0" via=":J1_13_0" tl="J1" linkIndex="13" dir="s" state="O"/>
    <connection from="E0" to="E1" fromLane="1" toLane="1" via=":J1_13_1" tl="J1" linkIndex="14" dir="s" state="O"/>
    <connection from="E0" to="E2" fromLane="2" toLane="2" via=":J1_15_0" tl="J1" linkIndex="15" dir="l" state="o"/>

    <connection from=":J1_0" to="-E0" fromLane="0" toLane="0" dir="r" state="M"/>
    <connection from=":J1_1" to="E3" fromLane="0" toLane="0" dir="s" state="M"/>
    <connection from=":J1_1" to="E3" fromLane="1" toLane="1" dir="s" state="M"/>
    <connection from=":J1_3" to="E1" fromLane="0" toLane="2" dir="l" state="M"/>
    <connection from=":J1_4" to="E2" fromLane="0" toLane="0" dir="r" state="M"/>
    <connection from=":J1_5" to="-E0" fromLane="0" toLane="0" dir="s" state="M"/>
    <connection from=":J1_5" to="-E0" fromLane="1" toLane="1" dir="s" state="M"/>
    <connection from=":J1_7" to="E3" fromLane="0" toLane="2" dir="l" state="M"/>
    <connection from=":J1_8" to="E1" fromLane="0" toLane="0" dir="r" state="M"/>
    <connection from=":J1_9" to="E2" fromLane="0" toLane="0" dir="s" state="M"/>
    <connection from=":J1_9" to="E2" fromLane="1" toLane="1" dir="s" state="M"/>
    <connection from=":J1_11" to="-E0" fromLane="0" toLane="2" dir="l" state="M"/>
    <connection from=":J1_12" to="E3" fromLane="0" toLane="0" dir="r" state="M"/>
    <connection from=":J1_13" to="E1" fromLane="0" toLane="0" dir="s" state="M"/>
    <connection from=":J1_13" to="E1" fromLane="1" toLane="1" dir="s" state="M"/>
    <connection from=":J1_15" to="E2" fromLane="0" toLane="2" dir="l" state="M"/>

</net>
