<?xml version="1.0" encoding="UTF-8"?>

<!-- generated on 2026-05-22T17:45:34.571348+08:00 by Eclipse SUMO jtrrouter 1.26.0
<jtrrouterConfiguration xmlns:xsi="http://www.w3.org/2001/XMLSchema-instance" xsi:noNamespaceSchemaLocation="http://sumo.dlr.de/xsd/jtrrouterConfiguration.xsd">

    <input>
        <net-file value="demo_1.net.xml"/>
        <route-files value="demo_1.flow.xml"/>
        <turn-ratio-files value="demo_1.turn.xml"/>
    </input>

    <output>
        <output-file value="demo_1.rou.xml"/>
    </output>

    <time>
        <begin value="0"/>
        <end value="3600"/>
    </time>

</jtrrouterConfiguration>
-->

<routes xmlns:xsi="http://www.w3.org/2001/XMLSchema-instance" xsi:noNamespaceSchemaLocation="http://sumo.dlr.de/xsd/routes_file.xsd">
    <vType id="car" maxSpeed="37.00" vClass="passenger"/>
    <vehicle id="EW_car.0" type="car" depart="0.00">
        <route edges="-E1 E3"/>
    </vehicle>
    <vehicle id="NS_car.0" type="car" depart="0.00">
        <route edges="E0 E2"/>
    </vehicle>
    <vehicle id="SN_car.0" type="car" depart="0.00">
        <route edges="-E2 -E0"/>
    </vehicle>
    <vehicle id="WE_car.0" type="car" depart="0.00">
        <route edges="-E3 E1"/>
    </vehicle>
    <vehicle id="WE_car.1" type="car" depart="7.79">
        <route edges="-E3 E2"/>
    </vehicle>
    <vehicle id="NS_car.1" type="car" depart="8.37">
        <route edges="E0 E1"/>
    </vehicle>
    <vehicle id="SN_car.1" type="car" depart="8.47">
        <route edges="-E2 E3"/>
    </vehicle>
    <vehicle id="EW_car.1" type="car" depart="9.84">
        <route edges="-E1 -E0"/>
    </vehicle>
    <vehicle id="WE_car.2" type="car" depart="15.58">
        <route edges="-E3 E2"/>
    </vehicle>
    <vehicle id="NS_car.2" type="car" depart="16.74">
        <route edges="E0 E2"/>
    </vehicle>
    <vehicle id="SN_car.2" type="car" depart="16.94">
        <route edges="-E2 -E0"/>
    </vehicle>
    <vehicle id="EW_car.2" type="car" depart="19.67">
        <route edges="-E1 E3"/>
    </vehicle>
    <vehicle id="WE_car.3" type="car" depart="23.38">
        <route edges="-E3 E1"/>
    </vehicle>
    <vehicle id="NS_car.3" type="car" depart="25.12">
        <route edges="E0 E2"/>
    </vehicle>
    <vehicle id="SN_car.3" type="car" depart="25.41">
        <route edges="-E2 E3"/>
    </vehicle>
    <vehicle id="EW_car.3" type="car" depart="29.51">
        <route edges="-E1 -E0"/>
    </vehicle>
    <vehicle id="WE_car.4" type="car" depart="31.17">
        <route edges="-E3 -E0"/>
    </vehicle>
    <vehicle id="NS_car.4" type="car" depart="33.49">
        <route edges="E0 E3"/>
    </vehicle>
    <vehicle id="SN_car.4" type="car" depart="33.88">
        <route edges="-E2 E3"/>
    </vehicle>
    <vehicle id="WE_car.5" type="car" depart="38.96">
        <route edges="-E3 E2"/>
    </vehicle>
    <vehicle id="EW_car.4" type="car" depart="39.34">
        <route edges="-E1 -E0"/>
    </vehicle>
    <vehicle id="NS_car.5" type="car" depart="41.86">
        <route edges="E0 E2"/>
    </vehicle>
    <vehicle id="SN_car.5" type="car" depart="42.35">
        <route edges="-E2 E3"/>
    </vehicle>
    <vehicle id="WE_car.6" type="car" depart="46.75">
        <route edges="-E3 E2"/>
    </vehicle>
    <vehicle id="EW_car.5" type="car" depart="49.18">
        <route edges="-E1 E3"/>
    </vehicle>
    <vehicle id="NS_car.6" type="car" depart="50.23">
        <route edges="E0 E3"/>
    </vehicle>
    <vehicle id="SN_car.6" type="car" depart="50.82">
        <route edges="-E2 E3"/>
    </vehicle>
    <vehicle id="WE_car.7" type="car" depart="54.54">
        <route edges="-E3 E1"/>
    </vehicle>
    <vehicle id="NS_car.7" type="car" depart="58.60">
        <route edges="E0 E2"/>
    </vehicle>
    <vehicle id="EW_car.6" type="car" depart="59.02">
        <route edges="-E1 -E0"/>
    </vehicle>
    <vehicle id="SN_car.7" type="car" depart="59.29">
        <route edges="-E2 -E0"/>
    </vehicle>
    <vehicle id="WE_car.8" type="car" depart="62.34">
        <route edges="-E3 E1"/>
    </vehicle>
    <vehicle id="NS_car.8" type="car" depart="66.98">
        <route edges="E0 E2"/>
    </vehicle>
    <vehicle id="SN_car.8" type="car" depart="67.76">
        <route edges="-E2 -E0"/>
    </vehicle>
    <vehicle id="EW_car.7" type="car" depart="68.85">
        <route edges="-E1 E3"/>
    </vehicle>
    <vehicle id="WE_car.9" type="car" depart="70.13">
        <route edges="-E3 -E0"/>
    </vehicle>
    <vehicle id="NS_car.9" type="car" depart="75.35">
        <route edges="E0 E2"/>
    </vehicle>
    <vehicle id="SN_car.9" type="car" depart="76.23">
        <route edges="-E2 E3"/>
    </vehicle>
    <vehicle id="WE_car.10" type="car" depart="77.92">
        <route edges="-E3 -E0"/>
    </vehicle>
    <vehicle id="EW_car.8" type="car" depart="78.69">
        <route edges="-E1 -E0"/>
    </vehicle>
    <vehicle id="NS_car.10" type="car" depart="83.72">
        <route edges="E0 E2"/>
    </vehicle>
    <vehicle id="SN_car.10" type="car" depart="84.70">
        <route edges="-E2 E3"/>
    </vehicle>
    <vehicle id="WE_car.11" type="car" depart="85.71">
        <route edges="-E3 E1"/>
    </vehicle>
    <vehicle id="EW_car.9" type="car" depart="88.52">
        <route edges="-E1 -E0"/>
    </vehicle>
    <vehicle id="NS_car.11" type="car" depart="92.09">
        <route edges="E0 E1"/>
    </vehicle>
    <vehicle id="SN_car.11" type="car" depart="93.17">
        <route edges="-E2 E3"/>
    </vehicle>
    <vehicle id="WE_car.12" type="car" depart="93.50">
        <route edges="-E3 E1"/>
    </vehicle>
    <vehicle id="EW_car.10" type="car" depart="98.36">
        <route edges="-E1 E3"/>
    </vehicle>
    <vehicle id="NS_car.12" type="car" depart="100.46">
        <route edges="E0 E1"/>
    </vehicle>
    <vehicle id="WE_car.13" type="car" depart="101.30">
        <route edges="-E3 E2"/>
    </vehicle>
    <vehicle id="SN_car.12" type="car" depart="101.64">
        <route edges="-E2 E3"/>
    </vehicle>
    <vehicle id="EW_car.11" type="car" depart="108.20">
        <route edges="-E1 E2"/>
    </vehicle>
    <vehicle id="NS_car.13" type="car" depart="108.84">
        <route edges="E0 E2"/>
    </vehicle>
    <vehicle id="WE_car.14" type="car" depart="109.09">
        <route edges="-E3 E2"/>
    </vehicle>
    <vehicle id="SN_car.13" type="car" depart="110.11">
        <route edges="-E2 E3"/>
    </vehicle>
    <vehicle id="WE_car.15" type="car" depart="116.88">
        <route edges="-E3 E1"/>
    </vehicle>
    <vehicle id="NS_car.14" type="car" depart="117.21">
        <route edges="E0 E2"/>
    </vehicle>
    <vehicle id="EW_car.12" type="car" depart="118.03">
        <route edges="-E1 E2"/>
    </vehicle>
    <vehicle id="SN_car.14" type="car" depart="118.58">
        <route edges="-E2 -E0"/>
    </vehicle>
    <vehicle id="WE_car.16" type="car" depart="124.67">
        <route edges="-E3 E2"/>
    </vehicle>
    <vehicle id="NS_car.15" type="car" depart="125.58">
        <route edges="E0 E1"/>
    </vehicle>
    <vehicle id="SN_car.15" type="car" depart="127.05">
        <route edges="-E2 E3"/>
    </vehicle>
    <vehicle id="EW_car.13" type="car" depart="127.87">
        <route edges="-E1 -E0"/>
    </vehicle>
    <vehicle id="WE_car.17" type="car" depart="132.46">
        <route edges="-E3 -E0"/>
    </vehicle>
    <vehicle id="NS_car.16" type="car" depart="133.95">
        <route edges="E0 E1"/>
    </vehicle>
    <vehicle id="SN_car.16" type="car" depart="135.52">
        <route edges="-E2 E3"/>
    </vehicle>
    <vehicle id="EW_car.14" type="car" depart="137.70">
        <route edges="-E1 E3"/>
    </vehicle>
    <vehicle id="WE_car.18" type="car" depart="140.26">
        <route edges="-E3 -E0"/>
    </vehicle>
    <vehicle id="NS_car.17" type="car" depart="142.32">
        <route edges="E0 E1"/>
    </vehicle>
    <vehicle id="SN_car.17" type="car" depart="143.99">
        <route edges="-E2 E3"/>
    </vehicle>
    <vehicle id="EW_car.15" type="car" depart="147.54">
        <route edges="-E1 E2"/>
    </vehicle>
    <vehicle id="WE_car.19" type="car" depart="148.05">
        <route edges="-E3 E1"/>
    </vehicle>
    <vehicle id="NS_car.18" type="car" depart="150.70">
        <route edges="E0 E1"/>
    </vehicle>
    <vehicle id="SN_car.18" type="car" depart="152.46">
        <route edges="-E2 E3"/>
    </vehicle>
    <vehicle id="WE_car.20" type="car" depart="155.84">
        <route edges="-E3 E1"/>
    </vehicle>
    <vehicle id="EW_car.16" type="car" depart="157.38">
        <route edges="-E1 -E0"/>
    </vehicle>
    <vehicle id="NS_car.19" type="car" depart="159.07">
        <route edges="E0 E1"/>
    </vehicle>
    <vehicle id="SN_car.19" type="car" depart="160.93">
        <route edges="-E2 -E0"/>
    </vehicle>
    <vehicle id="WE_car.21" type="car" depart="163.63">
        <route edges="-E3 E2"/>
    </vehicle>
    <vehicle id="EW_car.17" type="car" depart="167.21">
        <route edges="-E1 E2"/>
    </vehicle>
    <vehicle id="NS_car.20" type="car" depart="167.44">
        <route edges="E0 E1"/>
    </vehicle>
    <vehicle id="SN_car.20" type="car" depart="169.40">
        <route edges="-E2 E1"/>
    </vehicle>
    <vehicle id="WE_car.22" type="car" depart="171.42">
        <route edges="-E3 E2"/>
    </vehicle>
    <vehicle id="NS_car.21" type="car" depart="175.81">
        <route edges="E0 E2"/>
    </vehicle>
    <vehicle id="EW_car.18" type="car" depart="177.05">
        <route edges="-E1 E3"/>
    </vehicle>
    <vehicle id="SN_car.21" type="car" depart="177.87">
        <route edges="-E2 E3"/>
    </vehicle>
    <vehicle id="WE_car.23" type="car" depart="179.22">
        <route edges="-E3 E2"/>
    </vehicle>
    <vehicle id="NS_car.22" type="car" depart="184.18">
        <route edges="E0 E3"/>
    </vehicle>
    <vehicle id="SN_car.22" type="car" depart="186.34">
        <route edges="-E2 E3"/>
    </vehicle>
    <vehicle id="EW_car.19" type="car" depart="186.88">
        <route edges="-E1 E2"/>
    </vehicle>
    <vehicle id="WE_car.24" type="car" depart="187.01">
        <route edges="-E3 E1"/>
    </vehicle>
    <vehicle id="NS_car.23" type="car" depart="192.56">
        <route edges="E0 E3"/>
    </vehicle>
    <vehicle id="WE_car.25" type="car" depart="194.80">
        <route edges="-E3 -E0"/>
    </vehicle>
    <vehicle id="SN_car.23" type="car" depart="194.81">
        <route edges="-E2 E3"/>
    </vehicle>
    <vehicle id="EW_car.20" type="car" depart="196.72">
        <route edges="-E1 -E0"/>
    </vehicle>
    <vehicle id="NS_car.24" type="car" depart="200.93">
        <route edges="E0 E3"/>
    </vehicle>
    <vehicle id="WE_car.26" type="car" depart="202.59">
        <route edges="-E3 E2"/>
    </vehicle>
    <vehicle id="SN_car.24" type="car" depart="203.28">
        <route edges="-E2 E3"/>
    </vehicle>
    <vehicle id="EW_car.21" type="car" depart="206.56">
        <route edges="-E1 E2"/>
    </vehicle>
    <vehicle id="NS_car.25" type="car" depart="209.30">
        <route edges="E0 E2"/>
    </vehicle>
    <vehicle id="WE_car.27" type="car" depart="210.38">
        <route edges="-E3 E2"/>
    </vehicle>
    <vehicle id="SN_car.25" type="car" depart="211.75">
        <route edges="-E2 E3"/>
    </vehicle>
    <vehicle id="EW_car.22" type="car" depart="216.39">
        <route edges="-E1 E3"/>
    </vehicle>
    <vehicle id="NS_car.26" type="car" depart="217.67">
        <route edges="E0 E2"/>
    </vehicle>
    <vehicle id="WE_car.28" type="car" depart="218.18">
        <route edges="-E3 E2"/>
    </vehicle>
    <vehicle id="SN_car.26" type="car" depart="220.22">
        <route edges="-E2 E1"/>
    </vehicle>
    <vehicle id="WE_car.29" type="car" depart="225.97">
        <route edges="-E3 E1"/>
    </vehicle>
    <vehicle id="NS_car.27" type="car" depart="226.04">
        <route edges="E0 E2"/>
    </vehicle>
    <vehicle id="EW_car.23" type="car" depart="226.23">
        <route edges="-E1 E3"/>
    </vehicle>
    <vehicle id="SN_car.27" type="car" depart="228.69">
        <route edges="-E2 -E0"/>
    </vehicle>
    <vehicle id="WE_car.30" type="car" depart="233.76">
        <route edges="-E3 E1"/>
    </vehicle>
    <vehicle id="NS_car.28" type="car" depart="234.42">
        <route edges="E0 E2"/>
    </vehicle>
    <vehicle id="EW_car.24" type="car" depart="236.06">
        <route edges="-E1 E3"/>
    </vehicle>
    <vehicle id="SN_car.28" type="car" depart="237.16">
        <route edges="-E2 E1"/>
    </vehicle>
    <vehicle id="WE_car.31" type="car" depart="241.55">
        <route edges="-E3 E2"/>
    </vehicle>
    <vehicle id="NS_car.29" type="car" depart="242.79">
        <route edges="E0 E1"/>
    </vehicle>
    <vehicle id="SN_car.29" type="car" depart="245.63">
        <route edges="-E2 E3"/>
    </vehicle>
    <vehicle id="EW_car.25" type="car" depart="245.90">
        <route edges="-E1 -E0"/>
    </vehicle>
    <vehicle id="WE_car.32" type="car" depart="249.34">
        <route edges="-E3 E2"/>
    </vehicle>
    <vehicle id="NS_car.30" type="car" depart="251.16">
        <route edges="E0 E2"/>
    </vehicle>
    <vehicle id="SN_car.30" type="car" depart="254.10">
        <route edges="-E2 E3"/>
    </vehicle>
    <vehicle id="EW_car.26" type="car" depart="255.74">
        <route edges="-E1 -E0"/>
    </vehicle>
    <vehicle id="WE_car.33" type="car" depart="257.14">
        <route edges="-E3 E1"/>
    </vehicle>
    <vehicle id="NS_car.31" type="car" depart="259.53">
        <route edges="E0 E2"/>
    </vehicle>
    <vehicle id="SN_car.31" type="car" depart="262.57">
        <route edges="-E2 E3"/>
    </vehicle>
    <vehicle id="WE_car.34" type="car" depart="264.93">
        <route edges="-E3 E2"/>
    </vehicle>
    <vehicle id="EW_car.27" type="car" depart="265.57">
        <route edges="-E1 -E0"/>
    </vehicle>
    <vehicle id="NS_car.32" type="car" depart="267.90">
        <route edges="E0 E3"/>
    </vehicle>
    <vehicle id="SN_car.32" type="car" depart="271.04">
        <route edges="-E2 E3"/>
    </vehicle>
    <vehicle id="WE_car.35" type="car" depart="272.72">
        <route edges="-E3 E2"/>
    </vehicle>
    <vehicle id="EW_car.28" type="car" depart="275.41">
        <route edges="-E1 E2"/>
    </vehicle>
    <vehicle id="NS_car.33" type="car" depart="276.28">
        <route edges="E0 E2"/>
    </vehicle>
    <vehicle id="SN_car.33" type="car" depart="279.51">
        <route edges="-E2 E1"/>
    </vehicle>
    <vehicle id="WE_car.36" type="car" depart="280.51">
        <route edges="-E3 E1"/>
    </vehicle>
    <vehicle id="NS_car.34" type="car" depart="284.65">
        <route edges="E0 E2"/>
    </vehicle>
    <vehicle id="EW_car.29" type="car" depart="285.24">
        <route edges="-E1 E2"/>
    </vehicle>
    <vehicle id="SN_car.34" type="car" depart="287.98">
        <route edges="-E2 E3"/>
    </vehicle>
    <vehicle id="WE_car.37" type="car" depart="288.30">
        <route edges="-E3 -E0"/>
    </vehicle>
    <vehicle id="NS_car.35" type="car" depart="293.02">
        <route edges="E0 E3"/>
    </vehicle>
    <vehicle id="EW_car.30" type="car" depart="295.08">
        <route edges="-E1 E3"/>
    </vehicle>
    <vehicle id="WE_car.38" type="car" depart="296.10">
        <route edges="-E3 E2"/>
    </vehicle>
    <vehicle id="SN_car.35" type="car" depart="296.45">
        <route edges="-E2 E3"/>
    </vehicle>
    <vehicle id="NS_car.36" type="car" depart="301.39">
        <route edges="E0 E2"/>
    </vehicle>
    <vehicle id="WE_car.39" type="car" depart="303.89">
        <route edges="-E3 -E0"/>
    </vehicle>
    <vehicle id="EW_car.31" type="car" depart="304.92">
        <route edges="-E1 E3"/>
    </vehicle>
    <vehicle id="SN_car.36" type="car" depart="304.92">
        <route edges="-E2 E3"/>
    </vehicle>
    <vehicle id="NS_car.37" type="car" depart="309.76">
        <route edges="E0 E2"/>
    </vehicle>
    <vehicle id="WE_car.40" type="car" depart="311.68">
        <route edges="-E3 E2"/>
    </vehicle>
    <vehicle id="SN_car.37" type="car" depart="313.39">
        <route edges="-E2 -E0"/>
    </vehicle>
    <vehicle id="EW_car.32" type="car" depart="314.75">
        <route edges="-E1 E2"/>
    </vehicle>
    <vehicle id="NS_car.38" type="car" depart="318.14">
        <route edges="E0 E2"/>
    </vehicle>
    <vehicle id="WE_car.41" type="car" depart="319.47">
        <route edges="-E3 E1"/>
    </vehicle>
    <vehicle id="SN_car.38" type="car" depart="321.86">
        <route edges="-E2 E3"/>
    </vehicle>
    <vehicle id="EW_car.33" type="car" depart="324.59">
        <route edges="-E1 -E0"/>
    </vehicle>
    <vehicle id="NS_car.39" type="car" depart="326.51">
        <route edges="E0 E2"/>
    </vehicle>
    <vehicle id="WE_car.42" type="car" depart="327.26">
        <route edges="-E3 E2"/>
    </vehicle>
    <vehicle id="SN_car.39" type="car" depart="330.33">
        <route edges="-E2 -E0"/>
    </vehicle>
    <vehicle id="EW_car.34" type="car" depart="334.42">
        <route edges="-E1 E2"/>
    </vehicle>
    <vehicle id="NS_car.40" type="car" depart="334.88">
        <route edges="E0 E3"/>
    </vehicle>
    <vehicle id="WE_car.43" type="car" depart="335.06">
        <route edges="-E3 E1"/>
    </vehicle>
    <vehicle id="SN_car.40" type="car" depart="338.80">
        <route edges="-E2 -E0"/>
    </vehicle>
    <vehicle id="WE_car.44" type="car" depart="342.85">
        <route edges="-E3 E2"/>
    </vehicle>
    <vehicle id="NS_car.41" type="car" depart="343.25">
        <route edges="E0 E3"/>
    </vehicle>
    <vehicle id="EW_car.35" type="car" depart="344.26">
        <route edges="-E1 E2"/>
    </vehicle>
    <vehicle id="SN_car.41" type="car" depart="347.27">
        <route edges="-E2 E3"/>
    </vehicle>
    <vehicle id="WE_car.45" type="car" depart="350.64">
        <route edges="-E3 E1"/>
    </vehicle>
    <vehicle id="NS_car.42" type="car" depart="351.62">
        <route edges="E0 E3"/>
    </vehicle>
    <vehicle id="EW_car.36" type="car" depart="354.10">
        <route edges="-E1 E3"/>
    </vehicle>
    <vehicle id="SN_car.42" type="car" depart="355.74">
        <route edges="-E2 E3"/>
    </vehicle>
    <vehicle id="WE_car.46" type="car" depart="358.43">
        <route edges="-E3 E2"/>
    </vehicle>
    <vehicle id="NS_car.43" type="car" depart="360.00">
        <route edges="E0 E2"/>
    </vehicle>
    <vehicle id="EW_car.37" type="car" depart="363.93">
        <route edges="-E1 -E0"/>
    </vehicle>
    <vehicle id="SN_car.43" type="car" depart="364.21">
        <route edges="-E2 -E0"/>
    </vehicle>
    <vehicle id="WE_car.47" type="car" depart="366.22">
        <route edges="-E3 E1"/>
    </vehicle>
    <vehicle id="NS_car.44" type="car" depart="368.37">
        <route edges="E0 E2"/>
    </vehicle>
    <vehicle id="SN_car.44" type="car" depart="372.68">
        <route edges="-E2 E3"/>
    </vehicle>
    <vehicle id="EW_car.38" type="car" depart="373.77">
        <route edges="-E1 E2"/>
    </vehicle>
    <vehicle id="WE_car.48" type="car" depart="374.02">
        <route edges="-E3 E1"/>
    </vehicle>
    <vehicle id="NS_car.45" type="car" depart="376.74">
        <route edges="E0 E3"/>
    </vehicle>
    <vehicle id="SN_car.45" type="car" depart="381.15">
        <route edges="-E2 -E0"/>
    </vehicle>
    <vehicle id="WE_car.49" type="car" depart="381.81">
        <route edges="-E3 E2"/>
    </vehicle>
    <vehicle id="EW_car.39" type="car" depart="383.60">
        <route edges="-E1 -E0"/>
    </vehicle>
    <vehicle id="NS_car.46" type="car" depart="385.11">
        <route edges="E0 E2"/>
    </vehicle>
    <vehicle id="WE_car.50" type="car" depart="389.60">
        <route edges="-E3 -E0"/>
    </vehicle>
    <vehicle id="SN_car.46" type="car" depart="389.62">
        <route edges="-E2 -E0"/>
    </vehicle>
    <vehicle id="EW_car.40" type="car" depart="393.44">
        <route edges="-E1 -E0"/>
    </vehicle>
    <vehicle id="NS_car.47" type="car" depart="393.48">
        <route edges="E0 E1"/>
    </vehicle>
    <vehicle id="WE_car.51" type="car" depart="397.39">
        <route edges="-E3 -E0"/>
    </vehicle>
    <vehicle id="SN_car.47" type="car" depart="398.09">
        <route edges="-E2 E3"/>
    </vehicle>
    <vehicle id="NS_car.48" type="car" depart="401.86">
        <route edges="E0 E2"/>
    </vehicle>
    <vehicle id="EW_car.41" type="car" depart="403.28">
        <route edges="-E1 -E0"/>
    </vehicle>
    <vehicle id="WE_car.52" type="car" depart="405.18">
        <route edges="-E3 E2"/>
    </vehicle>
    <vehicle id="SN_car.48" type="car" depart="406.56">
        <route edges="-E2 E3"/>
    </vehicle>
    <vehicle id="NS_car.49" type="car" depart="410.23">
        <route edges="E0 E1"/>
    </vehicle>
    <vehicle id="WE_car.53" type="car" depart="412.98">
        <route edges="-E3 E1"/>
    </vehicle>
    <vehicle id="EW_car.42" type="car" depart="413.11">
        <route edges="-E1 E3"/>
    </vehicle>
    <vehicle id="SN_car.49" type="car" depart="415.03">
        <route edges="-E2 E1"/>
    </vehicle>
    <vehicle id="NS_car.50" type="car" depart="418.60">
        <route edges="E0 E3"/>
    </vehicle>
    <vehicle id="WE_car.54" type="car" depart="420.77">
        <route edges="-E3 E2"/>
    </vehicle>
    <vehicle id="EW_car.43" type="car" depart="422.95">
        <route edges="-E1 E3"/>
    </vehicle>
    <vehicle id="SN_car.50" type="car" depart="423.50">
        <route edges="-E2 E3"/>
    </vehicle>
    <vehicle id="NS_car.51" type="car" depart="426.97">
        <route edges="E0 E1"/>
    </vehicle>
    <vehicle id="WE_car.55" type="car" depart="428.56">
        <route edges="-E3 E2"/>
    </vehicle>
    <vehicle id="SN_car.51" type="car" depart="431.97">
        <route edges="-E2 -E0"/>
    </vehicle>
    <vehicle id="EW_car.44" type="car" depart="432.78">
        <route edges="-E1 E3"/>
    </vehicle>
    <vehicle id="NS_car.52" type="car" depart="435.34">
        <route edges="E0 E2"/>
    </vehicle>
    <vehicle id="WE_car.56" type="car" depart="436.35">
        <route edges="-E3 E2"/>
    </vehicle>
    <vehicle id="SN_car.52" type="car" depart="440.44">
        <route edges="-E2 -E0"/>
    </vehicle>
    <vehicle id="EW_car.45" type="car" depart="442.62">
        <route edges="-E1 E2"/>
    </vehicle>
    <vehicle id="NS_car.53" type="car" depart="443.72">
        <route edges="E0 E1"/>
    </vehicle>
    <vehicle id="WE_car.57" type="car" depart="444.14">
        <route edges="-E3 E2"/>
    </vehicle>
    <vehicle id="SN_car.53" type="car" depart="448.91">
        <route edges="-E2 -E0"/>
    </vehicle>
    <vehicle id="WE_car.58" type="car" depart="451.94">
        <route edges="-E3 E1"/>
    </vehicle>
    <vehicle id="NS_car.54" type="car" depart="452.09">
        <route edges="E0 E2"/>
    </vehicle>
    <vehicle id="EW_car.46" type="car" depart="452.46">
        <route edges="-E1 E3"/>
    </vehicle>
    <vehicle id="SN_car.54" type="car" depart="457.38">
        <route edges="-E2 E3"/>
    </vehicle>
    <vehicle id="WE_car.59" type="car" depart="459.73">
        <route edges="-E3 -E0"/>
    </vehicle>
    <vehicle id="NS_car.55" type="car" depart="460.46">
        <route edges="E0 E3"/>
    </vehicle>
    <vehicle id="EW_car.47" type="car" depart="462.29">
        <route edges="-E1 E2"/>
    </vehicle>
    <vehicle id="SN_car.55" type="car" depart="465.85">
        <route edges="-E2 -E0"/>
    </vehicle>
    <vehicle id="WE_car.60" type="car" depart="467.52">
        <route edges="-E3 E2"/>
    </vehicle>
    <vehicle id="NS_car.56" type="car" depart="468.83">
        <route edges="E0 E1"/>
    </vehicle>
    <vehicle id="EW_car.48" type="car" depart="472.13">
        <route edges="-E1 E2"/>
    </vehicle>
    <vehicle id="SN_car.56" type="car" depart="474.32">
        <route edges="-E2 E1"/>
    </vehicle>
    <vehicle id="WE_car.61" type="car" depart="475.31">
        <route edges="-E3 E2"/>
    </vehicle>
    <vehicle id="NS_car.57" type="car" depart="477.20">
        <route edges="E0 E3"/>
    </vehicle>
    <vehicle id="EW_car.49" type="car" depart="481.96">
        <route edges="-E1 E3"/>
    </vehicle>
    <vehicle id="SN_car.57" type="car" depart="482.79">
        <route edges="-E2 E1"/>
    </vehicle>
    <vehicle id="WE_car.62" type="car" depart="483.10">
        <route edges="-E3 E2"/>
    </vehicle>
    <vehicle id="NS_car.58" type="car" depart="485.58">
        <route edges="E0 E1"/>
    </vehicle>
    <vehicle id="WE_car.63" type="car" depart="490.90">
        <route edges="-E3 -E0"/>
    </vehicle>
    <vehicle id="SN_car.58" type="car" depart="491.26">
        <route edges="-E2 E3"/>
    </vehicle>
    <vehicle id="EW_car.50" type="car" depart="491.80">
        <route edges="-E1 -E0"/>
    </vehicle>
    <vehicle id="NS_car.59" type="car" depart="493.95">
        <route edges="E0 E2"/>
    </vehicle>
    <vehicle id="WE_car.64" type="car" depart="498.69">
        <route edges="-E3 E1"/>
    </vehicle>
    <vehicle id="SN_car.59" type="car" depart="499.73">
        <route edges="-E2 E3"/>
    </vehicle>
    <vehicle id="EW_car.51" type="car" depart="501.64">
        <route edges="-E1 E3"/>
    </vehicle>
    <vehicle id="NS_car.60" type="car" depart="502.32">
        <route edges="E0 E2"/>
    </vehicle>
    <vehicle id="WE_car.65" type="car" depart="506.48">
        <route edges="-E3 E2"/>
    </vehicle>
    <vehicle id="SN_car.60" type="car" depart="508.20">
        <route edges="-E2 E3"/>
    </vehicle>
    <vehicle id="NS_car.61" type="car" depart="510.69">
        <route edges="E0 E1"/>
    </vehicle>
    <vehicle id="EW_car.52" type="car" depart="511.47">
        <route edges="-E1 -E0"/>
    </vehicle>
    <vehicle id="WE_car.66" type="car" depart="514.27">
        <route edges="-E3 E2"/>
    </vehicle>
    <vehicle id="SN_car.61" type="car" depart="516.67">
        <route edges="-E2 -E0"/>
    </vehicle>
    <vehicle id="NS_car.62" type="car" depart="519.06">
        <route edges="E0 E1"/>
    </vehicle>
    <vehicle id="EW_car.53" type="car" depart="521.31">
        <route edges="-E1 -E0"/>
    </vehicle>
    <vehicle id="WE_car.67" type="car" depart="522.06">
        <route edges="-E3 E2"/>
    </vehicle>
    <vehicle id="SN_car.62" type="car" depart="525.14">
        <route edges="-E2 E1"/>
    </vehicle>
    <vehicle id="NS_car.63" type="car" depart="527.44">
        <route edges="E0 E2"/>
    </vehicle>
    <vehicle id="WE_car.68" type="car" depart="529.86">
        <route edges="-E3 E1"/>
    </vehicle>
    <vehicle id="EW_car.54" type="car" depart="531.14">
        <route edges="-E1 -E0"/>
    </vehicle>
    <vehicle id="SN_car.63" type="car" depart="533.61">
        <route edges="-E2 E3"/>
    </vehicle>
    <vehicle id="NS_car.64" type="car" depart="535.81">
        <route edges="E0 E2"/>
    </vehicle>
    <vehicle id="WE_car.69" type="car" depart="537.65">
        <route edges="-E3 E2"/>
    </vehicle>
    <vehicle id="EW_car.55" type="car" depart="540.98">
        <route edges="-E1 E2"/>
    </vehicle>
    <vehicle id="SN_car.64" type="car" depart="542.08">
        <route edges="-E2 E3"/>
    </vehicle>
    <vehicle id="NS_car.65" type="car" depart="544.18">
        <route edges="E0 E2"/>
    </vehicle>
    <vehicle id="WE_car.70" type="car" depart="545.44">
        <route edges="-E3 E2"/>
    </vehicle>
    <vehicle id="SN_car.65" type="car" depart="550.55">
        <route edges="-E2 E3"/>
    </vehicle>
    <vehicle id="EW_car.56" type="car" depart="550.82">
        <route edges="-E1 E2"/>
    </vehicle>
    <vehicle id="NS_car.66" type="car" depart="552.55">
        <route edges="E0 E2"/>
    </vehicle>
    <vehicle id="WE_car.71" type="car" depart="553.23">
        <route edges="-E3 E2"/>
    </vehicle>
    <vehicle id="SN_car.66" type="car" depart="559.02">
        <route edges="-E2 E1"/>
    </vehicle>
    <vehicle id="EW_car.57" type="car" depart="560.65">
        <route edges="-E1 -E0"/>
    </vehicle>
    <vehicle id="NS_car.67" type="car" depart="560.92">
        <route edges="E0 E1"/>
    </vehicle>
    <vehicle id="WE_car.72" type="car" depart="561.02">
        <route edges="-E3 E1"/>
    </vehicle>
    <vehicle id="SN_car.67" type="car" depart="567.49">
        <route edges="-E2 E3"/>
    </vehicle>
    <vehicle id="WE_car.73" type="car" depart="568.82">
        <route edges="-E3 E1"/>
    </vehicle>
    <vehicle id="NS_car.68" type="car" depart="569.30">
        <route edges="E0 E3"/>
    </vehicle>
    <vehicle id="EW_car.58" type="car" depart="570.49">
        <route edges="-E1 E3"/>
    </vehicle>
    <vehicle id="SN_car.68" type="car" depart="575.96">
        <route edges="-E2 E3"/>
    </vehicle>
    <vehicle id="WE_car.74" type="car" depart="576.61">
        <route edges="-E3 -E0"/>
    </vehicle>
    <vehicle id="NS_car.69" type="car" depart="577.67">
        <route edges="E0 E3"/>
    </vehicle>
    <vehicle id="EW_car.59" type="car" depart="580.32">
        <route edges="-E1 E3"/>
    </vehicle>
    <vehicle id="WE_car.75" type="car" depart="584.40">
        <route edges="-E3 -E0"/>
    </vehicle>
    <vehicle id="SN_car.69" type="car" depart="584.43">
        <route edges="-E2 E3"/>
    </vehicle>
    <vehicle id="NS_car.70" type="car" depart="586.04">
        <route edges="E0 E3"/>
    </vehicle>
    <vehicle id="EW_car.60" type="car" depart="590.16">
        <route edges="-E1 E3"/>
    </vehicle>
    <vehicle id="WE_car.76" type="car" depart="592.19">
        <route edges="-E3 E2"/>
    </vehicle>
    <vehicle id="SN_car.70" type="car" depart="592.90">
        <route edges="-E2 E3"/>
    </vehicle>
    <vehicle id="NS_car.71" type="car" depart="594.41">
        <route edges="E0 E1"/>
    </vehicle>
    <vehicle id="WE_car.77" type="car" depart="599.98">
        <route edges="-E3 E2"/>
    </vehicle>
    <vehicle id="EW_car.61" type="car" depart="600.00">
        <route edges="-E1 E2"/>
    </vehicle>
    <vehicle id="SN_car.71" type="car" depart="601.37">
        <route edges="-E2 E3"/>
    </vehicle>